REMARK  Name = ZINC000049410129
REMARK                            x       y       z     vdW  Elec       q    Type
REMARK                         _______ _______ _______ _____ _____    ______ ____
ROOT
ATOM      1  N   LIG    1        4.604  -6.131  -0.518  0.00  0.00    -0.166 NA
ENDROOT
BRANCH   1   2
ATOM      2  S   LIG    1        5.288  -4.886   0.324  0.00  0.00    +0.061 S 
ATOM      3  O   LIG    1        5.702  -5.366   1.597  0.00  0.00    -0.153 OA
ATOM      4  O   LIG    1        6.303  -4.305  -0.488  0.00  0.00    -0.153 OA
BRANCH   2   8
ATOM      5  C   LIG    1        1.907  -1.792   1.003  0.00  0.00    +0.017 A 
ATOM      6  C   LIG    1        1.767  -3.123   1.421  0.00  0.00    +0.013 A 
ATOM      7  C   LIG    1        2.789  -4.045   1.222  0.00  0.00    +0.029 A 
ATOM      8  C   LIG    1        3.979  -3.667   0.597  0.00  0.00    +0.106 A 
ATOM      9  C   LIG    1        4.133  -2.337   0.196  0.00  0.00    +0.029 A 
ATOM     10  C   LIG    1        3.114  -1.411   0.395  0.00  0.00    +0.013 A 
BRANCH   5  12
ATOM     11  C   LIG    1        0.912   0.604   0.767  0.00  0.00    +0.091 C 
ATOM     12  C   LIG    1        0.810  -0.840   1.201  0.00  0.00    +0.160 C 
ATOM     13  O   LIG    1       -0.228  -1.184   1.719  0.00  0.00    -0.292 OA
ENDBRANCH   5  12
ENDBRANCH   2   8
ENDBRANCH   1   2
BRANCH   1  14
ATOM     14  C   LIG    1        5.107  -7.466  -0.190  0.00  0.00    +0.163 C 
BRANCH  14  15
ATOM     15  C   LIG    1        4.034  -8.455  -0.608  0.00  0.00    +0.034 A 
ATOM     16  N   LIG    1        4.307  -9.662  -1.213  0.00  0.00    -0.352 N 
ATOM     17  C   LIG    1        5.619 -10.189  -1.559  0.00  0.00    +0.148 C 
ATOM     18  C   LIG    1        3.132 -10.320  -1.455  0.00  0.00    +0.085 A 
ATOM     19  C   LIG    1        2.116  -9.540  -0.998  0.00  0.00    +0.019 A 
ATOM     20  C   LIG    1        2.678  -8.378  -0.465  0.00  0.00    +0.024 A 
ENDBRANCH  14  15
ENDBRANCH   1  14
BRANCH   1  21
ATOM     21  C   LIG    1        4.413  -5.957  -1.972  0.00  0.00    +0.152 C 
BRANCH  21  22
ATOM     22  C   LIG    1        3.439  -4.824  -2.211  0.00  0.00    +0.005 A 
ATOM     23  S   LIG    1        1.753  -5.008  -1.861  0.00  0.00    -0.100 S 
ATOM     24  C   LIG    1        1.432  -3.403  -2.414  0.00  0.00    +0.045 A 
ATOM     25  C   LIG    1        2.566  -2.780  -2.849  0.00  0.00    +0.008 A 
ATOM     26  C   LIG    1        3.709  -3.591  -2.735  0.00  0.00    +0.012 A 
ENDBRANCH  21  22
ENDBRANCH   1  21
TORSDOF 7
