REMARK  Name = ZINC000000538627
REMARK                            x       y       z     vdW  Elec       q    Type
REMARK                         _______ _______ _______ _____ _____    ______ ____
ROOT
ATOM      1  C   LIG    1        6.754  -1.734  -2.542  0.00  0.00    +0.166 C 
ENDROOT
BRANCH   1   2
ATOM      2  C   LIG    1        7.834  -0.856  -3.213  0.00  0.00    -0.007 A 
ATOM      3  C   LIG    1        8.192   0.425  -2.767  0.00  0.00    +0.007 A 
ATOM      4  C   LIG    1        9.171   1.159  -3.430  0.00  0.00    +0.000 A 
ATOM      5  C   LIG    1        9.807   0.629  -4.547  0.00  0.00    +0.000 A 
ATOM      6  C   LIG    1        9.463  -0.637  -5.001  0.00  0.00    +0.000 A 
ATOM      7  C   LIG    1        8.484  -1.372  -4.339  0.00  0.00    +0.007 A 
ENDBRANCH   1   2
BRANCH   1   8
ATOM      8  C   LIG    1        7.411  -3.053  -2.077  0.00  0.00    -0.007 A 
ATOM      9  C   LIG    1        6.777  -4.285  -2.278  0.00  0.00    +0.007 A 
ATOM     10  C   LIG    1        7.360  -5.467  -1.831  0.00  0.00    +0.000 A 
ATOM     11  C   LIG    1        8.586  -5.436  -1.178  0.00  0.00    +0.000 A 
ATOM     12  C   LIG    1        9.231  -4.222  -0.976  0.00  0.00    +0.000 A 
ATOM     13  C   LIG    1        8.649  -3.040  -1.422  0.00  0.00    +0.007 A 
ENDBRANCH   1   8
BRANCH   1  15
ATOM     14  C   LIG    1        5.027  -0.959  -4.242  0.00  0.00    +0.195 C 
ATOM     15  O   LIG    1        5.741  -2.052  -3.582  0.00  0.00    -0.363 OA
ENDBRANCH   1  15
BRANCH   1  16
ATOM     16  C   LIG    1        6.067  -1.034  -1.334  0.00  0.00    +0.325 C 
BRANCH  16  17
ATOM     17  C   LIG    1        4.903  -1.894  -0.875  0.00  0.00    +0.350 C 
ATOM     18  O   LIG    1        3.736  -1.636  -1.153  0.00  0.00    -0.247 OA
BRANCH  17  19
ATOM     19  O   LIG    1        5.128  -2.970  -0.067  0.00  0.00    -0.478 OA
ATOM     20  H   LIG    1        6.069  -3.104   0.072  0.00  0.00    +0.295 HD
ENDBRANCH  17  19
ENDBRANCH  16  17
BRANCH  16  21
ATOM     21  O   LIG    1        7.021  -0.902  -0.208  0.00  0.00    -0.444 OA
BRANCH  21  22
ATOM     22  C   LIG    1        6.798  -0.043   0.807  0.00  0.00    +0.319 A 
ATOM     23  N   LIG    1        5.797   0.827   0.699  0.00  0.00    -0.200 NA
ATOM     24  C   LIG    1        5.578   1.651   1.707  0.00  0.00    +0.045 A 
ATOM     25  C   LIG    1        4.442   2.637   1.590  0.00  0.00    +0.066 C 
ATOM     26  C   LIG    1        6.396   1.602   2.826  0.00  0.00    +0.046 A 
ATOM     27  C   LIG    1        7.429   0.676   2.866  0.00  0.00    +0.045 A 
ATOM     28  C   LIG    1        8.348   0.560   4.057  0.00  0.00    +0.066 C 
ATOM     29  N   LIG    1        7.615  -0.143   1.847  0.00  0.00    -0.200 NA
ENDBRANCH  21  22
ENDBRANCH  16  21
ENDBRANCH   1  16
TORSDOF 8
