REMARK  Name = ZINC000000603769
REMARK                            x       y       z     vdW  Elec       q    Type
REMARK                         _______ _______ _______ _____ _____    ______ ____
ROOT
ATOM      1  C   LIG    1        4.909  -0.091  -6.080  0.00  0.00    +0.139 A 
ATOM      2  N   LIG    1        5.150  -1.127  -6.919  0.00  0.00    -0.336 N 
ATOM      3  H   LIG    1        5.078  -2.130  -6.689  0.00  0.00    +0.167 HD
ATOM      4  C   LIG    1        5.501  -0.655  -8.124  0.00  0.00    +0.093 A 
ATOM      5  C   LIG    1        5.505   0.711  -7.978  0.00  0.00    +0.099 A 
ATOM      6  N   LIG    1        5.114   1.041  -6.717  0.00  0.00    -0.227 NA
ENDROOT
BRANCH   5   7
ATOM      7  C   LIG    1        5.887   1.703  -8.974  0.00  0.00    +0.006 A 
ATOM      8  C   LIG    1        5.074   2.827  -9.203  0.00  0.00    +0.059 A 
ATOM      9  C   LIG    1        5.456   3.742 -10.171  0.00  0.00    +0.167 A 
ATOM     10  O   LIG    1        4.802   4.868 -10.537  0.00  0.00    -0.453 OA
ATOM     11  C   LIG    1        5.622   5.493 -11.600  0.00  0.00    +0.466 C 
ATOM     12  O   LIG    1        6.779   4.585 -11.784  0.00  0.00    -0.453 OA
ATOM     13  C   LIG    1        6.609   3.580 -10.899  0.00  0.00    +0.166 A 
ATOM     14  C   LIG    1        7.444   2.492 -10.689  0.00  0.00    +0.050 A 
ATOM     15  C   LIG    1        7.078   1.557  -9.719  0.00  0.00    +0.014 A 
ENDBRANCH   5   7
BRANCH   1  19
ATOM     16  C   LIG    1        3.666  -0.590  -2.004  0.00  0.00    +0.037 A 
ATOM     17  C   LIG    1        3.742   0.682  -2.593  0.00  0.00    +0.014 A 
ATOM     18  C   LIG    1        4.148   0.829  -3.913  0.00  0.00    +0.012 A 
ATOM     19  C   LIG    1        4.487  -0.283  -4.696  0.00  0.00    +0.017 A 
ATOM     20  C   LIG    1        4.404  -1.556  -4.108  0.00  0.00    +0.012 A 
ATOM     21  C   LIG    1        3.999  -1.704  -2.787  0.00  0.00    +0.014 A 
BRANCH  16  25
ATOM     22  N   LIG    1        3.194   0.258   0.255  0.00  0.00    -0.325 N 
ATOM     23  H   LIG    1        3.534   1.191  -0.002  0.00  0.00    +0.145 HD
ATOM     24  H   LIG    1        2.946   0.043   1.229  0.00  0.00    +0.145 HD
ATOM     25  C   LIG    1        3.251  -0.778  -0.610  0.00  0.00    +0.242 C 
ATOM     26  O   LIG    1        2.944  -1.853  -0.124  0.00  0.00    -0.270 OA
ENDBRANCH  16  25
ENDBRANCH   1  19
BRANCH   4  27
ATOM     27  C   LIG    1        5.751  -1.564  -9.224  0.00  0.00    +0.089 A 
ATOM     28  N   LIG    1        6.109  -2.826  -8.914  0.00  0.00    -0.253 NA
ATOM     29  C   LIG    1        6.354  -3.708  -9.880  0.00  0.00    +0.111 A 
ATOM     30  C   LIG    1        6.244  -3.373 -11.226  0.00  0.00    +0.020 A 
ATOM     31  C   LIG    1        5.861  -2.088 -11.580  0.00  0.00    +0.004 A 
ATOM     32  C   LIG    1        5.608  -1.181 -10.564  0.00  0.00    +0.030 A 
ENDBRANCH   4  27
TORSDOF 4
