REMARK  Name = ZINC000000622956
REMARK                            x       y       z     vdW  Elec       q    Type
REMARK                         _______ _______ _______ _____ _____    ______ ____
ROOT
ATOM      1  C   LIG    1        2.499   0.648   0.073  0.00  0.00    +0.271 C 
ATOM      2  N   LIG    1        2.747   1.669  -0.916  0.00  0.00    -0.157 N 
ATOM      3  C   LIG    1        3.431   1.213  -1.942  0.00  0.00    +0.250 C 
ATOM      4  C   LIG    1        3.821   2.027  -3.167  0.00  0.00    +0.124 C 
ATOM      5  C   LIG    1        2.975   1.517  -4.356  0.00  0.00    +0.012 C 
ATOM      6  C   LIG    1        3.574   0.206  -4.898  0.00  0.00    +0.004 C 
ATOM      7  C   LIG    1        3.465  -1.024  -3.972  0.00  0.00    +0.045 C 
ATOM      8  C   LIG    1        4.424  -0.875  -2.775  0.00  0.00    +0.236 C 
ATOM      9  N   LIG    1        3.719  -0.053  -1.783  0.00  0.00    -0.258 N 
ATOM     10  C   LIG    1        3.164  -0.612  -0.532  0.00  0.00    +0.323 C 
ENDROOT
BRANCH   1  11
ATOM     11  C   LIG    1        3.121   1.010   1.427  0.00  0.00    +0.034 A 
ATOM     12  C   LIG    1        2.368   0.959   2.614  0.00  0.00    +0.060 A 
ATOM     13  C   LIG    1        2.988   1.288   3.810  0.00  0.00    +0.167 A 
ATOM     14  O   LIG    1        2.428   1.297   5.038  0.00  0.00    -0.453 OA
ATOM     15  C   LIG    1        3.505   1.702   5.977  0.00  0.00    +0.466 C 
ATOM     16  O   LIG    1        4.697   1.925   5.123  0.00  0.00    -0.453 OA
ATOM     17  C   LIG    1        4.308   1.652   3.860  0.00  0.00    +0.166 A 
ATOM     18  C   LIG    1        5.082   1.706   2.713  0.00  0.00    +0.050 A 
ATOM     19  C   LIG    1        4.482   1.380   1.495  0.00  0.00    +0.014 A 
ENDBRANCH   1  11
BRANCH   2  20
ATOM     20  C   LIG    1        2.228   2.983  -0.824  0.00  0.00    +0.124 A 
ATOM     21  C   LIG    1        0.999   3.256  -1.422  0.00  0.00    +0.050 A 
ATOM     22  C   LIG    1        0.479   4.545  -1.342  0.00  0.00    +0.024 A 
ATOM     23  C   LIG    1        1.191   5.543  -0.669  0.00  0.00    +0.041 A 
ATOM     24 CL   LIG    1        0.542   7.144  -0.572  0.00  0.00    -0.084 Cl
ATOM     25  C   LIG    1        2.425   5.256  -0.076  0.00  0.00    +0.024 A 
ATOM     26  C   LIG    1        2.950   3.969  -0.153  0.00  0.00    +0.050 A 
ENDBRANCH   2  20
BRANCH   1  27
ATOM     27  O   LIG    1        1.088   0.492   0.150  0.00  0.00    -0.347 OA
ATOM     28  H   LIG    1        0.718   1.314   0.506  0.00  0.00    +0.215 HD
ENDBRANCH   1  27
TORSDOF 3
