REMARK  Name = ZINC000049410302
REMARK                            x       y       z     vdW  Elec       q    Type
REMARK                         _______ _______ _______ _____ _____    ______ ____
ROOT
ATOM      1  C   LIG    1        9.322  -0.990  -1.843  0.00  0.00    +0.314 A 
ATOM      2  O   LIG    1       10.079  -1.905  -2.424  0.00  0.00    -0.328 OA
ATOM      3  N   LIG    1       11.284  -1.408  -2.573  0.00  0.00    -0.054 NA
ATOM      4  C   LIG    1       11.232  -0.211  -2.084  0.00  0.00    +0.224 A 
ATOM      5  N   LIG    1        9.999   0.085  -1.612  0.00  0.00    -0.182 NA
ENDROOT
BRANCH   4   6
ATOM      6  C   LIG    1       12.376   0.706  -2.051  0.00  0.00    +0.153 A 
ATOM      7  N   LIG    1       12.354   1.962  -1.521  0.00  0.00    -0.126 NA
ATOM      8  N   LIG    1       13.545   2.480  -1.670  0.00  0.00    -0.060 NA
ATOM      9  N   LIG    1       14.329   1.572  -2.287  0.00  0.00    -0.219 N 
ATOM     10  C   LIG    1       13.619   0.467  -2.532  0.00  0.00    +0.148 A 
BRANCH   9  11
ATOM     11  C   LIG    1       15.715   1.799  -2.620  0.00  0.00    +0.068 A 
ATOM     12  C   LIG    1       16.611   0.728  -2.611  0.00  0.00    +0.047 A 
ATOM     13  C   LIG    1       17.944   0.967  -2.943  0.00  0.00    +0.043 A 
ATOM     14 CL   LIG    1       19.077  -0.343  -2.944  0.00  0.00    -0.083 Cl
ATOM     15  C   LIG    1       18.371   2.257  -3.273  0.00  0.00    +0.020 A 
ATOM     16  C   LIG    1       17.465   3.316  -3.273  0.00  0.00    +0.003 A 
ATOM     17  C   LIG    1       16.130   3.095  -2.945  0.00  0.00    +0.028 A 
ENDBRANCH   9  11
ENDBRANCH   4   6
BRANCH   1  20
ATOM     18  N   LIG    1        7.202  -0.258  -0.930  0.00  0.00    -0.278 N 
ATOM     19  H   LIG    1        7.734   0.614  -0.799  0.00  0.00    +0.155 HD
ATOM     20  C   LIG    1        7.916  -1.268  -1.552  0.00  0.00    +0.306 C 
ATOM     21  O   LIG    1        7.352  -2.321  -1.842  0.00  0.00    -0.265 OA
BRANCH  18  26
ATOM     22  C   LIG    1        1.725  -0.016   0.681  0.00  0.00    +0.044 C 
ATOM     23  C   LIG    1        3.173  -0.099   0.249  0.00  0.00    -0.050 A 
ATOM     24  C   LIG    1        3.859   1.053  -0.138  0.00  0.00    +0.005 A 
ATOM     25  C   LIG    1        5.191   0.981  -0.530  0.00  0.00    +0.023 A 
ATOM     26  C   LIG    1        5.843  -0.252  -0.536  0.00  0.00    +0.034 A 
ATOM     27  C   LIG    1        5.170  -1.410  -0.138  0.00  0.00    +0.023 A 
ATOM     28  C   LIG    1        3.837  -1.327   0.251  0.00  0.00    +0.005 A 
ENDBRANCH  18  26
ENDBRANCH   1  20
TORSDOF 4
