REMARK  Name = ZINC000049405515
REMARK                            x       y       z     vdW  Elec       q    Type
REMARK                         _______ _______ _______ _____ _____    ______ ____
ROOT
ATOM      1  C   LIG    1        6.391   5.629  -5.020  0.00  0.00    +0.171 C 
ENDROOT
BRANCH   1   4
ATOM      2  N   LIG    1        7.180   3.314  -4.625  0.00  0.00    -0.285 N 
ATOM      3  H   LIG    1        7.577   3.435  -5.566  0.00  0.00    +0.155 HD
ATOM      4  C   LIG    1        6.493   4.399  -4.135  0.00  0.00    +0.227 C 
ATOM      5  O   LIG    1        5.945   4.341  -3.053  0.00  0.00    -0.275 OA
BRANCH   2  10
ATOM      6  C   LIG    1        7.909  -0.379  -2.779  0.00  0.00    +0.138 A 
ATOM      7  C   LIG    1        7.704  -0.304  -4.167  0.00  0.00    +0.084 A 
ATOM      8 CL   LIG    1        7.753  -1.724  -5.162  0.00  0.00    -0.080 Cl
ATOM      9  C   LIG    1        7.457   0.931  -4.764  0.00  0.00    +0.047 A 
ATOM     10  C   LIG    1        7.413   2.078  -3.972  0.00  0.00    +0.035 A 
ATOM     11  C   LIG    1        7.625   2.009  -2.592  0.00  0.00    +0.027 A 
ATOM     12  C   LIG    1        7.871   0.776  -1.994  0.00  0.00    +0.049 A 
BRANCH   6  14
ATOM     13  C   LIG    1        8.354  -1.881  -0.803  0.00  0.00    +0.277 C 
ATOM     14  O   LIG    1        8.153  -1.626  -2.211  0.00  0.00    -0.494 OA
ENDBRANCH   6  14
ENDBRANCH   2  10
ENDBRANCH   1   4
BRANCH   1  15
ATOM     15  S   LIG    1        8.024   5.881  -5.837  0.00  0.00    -0.097 S 
BRANCH  15  16
ATOM     16  C   LIG    1        9.064   6.426  -4.554  0.00  0.00    +0.097 A 
ATOM     17  N   LIG    1        8.534   6.642  -3.341  0.00  0.00    -0.248 NA
ATOM     18  C   LIG    1        9.315   7.044  -2.342  0.00  0.00    +0.125 A 
ATOM     19  C   LIG    1       10.692   7.262  -2.495  0.00  0.00    +0.058 A 
ATOM     20  C   LIG    1       11.250   7.048  -3.763  0.00  0.00    +0.017 A 
ATOM     21  C   LIG    1       10.429   6.629  -4.793  0.00  0.00    +0.035 A 
BRANCH  19  22
ATOM     22  C   LIG    1       11.512   7.696  -1.376  0.00  0.00    +0.260 A 
ATOM     23  O   LIG    1       10.980   7.894  -0.176  0.00  0.00    -0.333 OA
ATOM     24  N   LIG    1       11.935   8.277   0.643  0.00  0.00    -0.061 NA
ATOM     25  C   LIG    1       12.990   8.296  -0.076  0.00  0.00    +0.169 A 
ATOM     26  C   LIG    1       14.349   8.681   0.444  0.00  0.00    +0.091 C 
ATOM     27  N   LIG    1       12.775   7.940  -1.350  0.00  0.00    -0.192 NA
ENDBRANCH  19  22
ENDBRANCH  15  16
ENDBRANCH   1  15
TORSDOF 6
