REMARK  Name = ZINC000006083307
REMARK                            x       y       z     vdW  Elec       q    Type
REMARK                         _______ _______ _______ _____ _____    ______ ____
ROOT
ATOM      1  N   LIG    1        2.142  -8.346  -2.819  0.00  0.00    -0.263 N 
ATOM      2  H   LIG    1        3.089  -7.974  -2.998  0.00  0.00    +0.157 HD
ATOM      3  C   LIG    1        2.024  -9.129  -1.708  0.00  0.00    +0.240 C 
ATOM      4  O   LIG    1        1.129  -9.954  -1.647  0.00  0.00    -0.273 OA
ENDROOT
BRANCH   3   5
ATOM      5  C   LIG    1        2.995  -8.897  -0.531  0.00  0.00    +0.173 C 
ATOM      6  N   LIG    1        4.466  -8.785  -0.802  0.00  0.00    -0.275 N 
ATOM      7  C   LIG    1        5.186  -8.893  -1.913  0.00  0.00    +0.217 C 
ATOM      8  O   LIG    1        4.782  -8.757  -3.056  0.00  0.00    -0.276 OA
ATOM      9  C   LIG    1        6.635  -9.182  -1.579  0.00  0.00    +0.099 C 
ATOM     10  C   LIG    1        6.577  -9.641  -0.113  0.00  0.00    +0.046 C 
ATOM     11  C   LIG    1        5.300  -8.928   0.356  0.00  0.00    +0.082 C 
ATOM     12  C   LIG    1        5.568  -7.574   1.019  0.00  0.00    +0.044 C 
ATOM     13  S   LIG    1        4.343  -9.951   1.495  0.00  0.00    -0.133 S 
ATOM     14  C   LIG    1        2.881 -10.113   0.412  0.00  0.00    +0.103 C 
ENDBRANCH   3   5
BRANCH   1  17
ATOM     15  C   LIG    1       -0.731  -8.035  -4.861  0.00  0.00    +0.080 A 
ATOM     16  N   LIG    1       -0.093  -8.244  -3.659  0.00  0.00    -0.225 NA
ATOM     17  C   LIG    1        1.192  -8.186  -3.828  0.00  0.00    +0.165 A 
ATOM     18  S   LIG    1        1.755  -7.835  -5.417  0.00  0.00    -0.060 S 
ATOM     19  C   LIG    1        0.116  -7.796  -5.908  0.00  0.00    +0.076 A 
BRANCH  15  23
ATOM     20  C   LIG    1       -4.866  -5.805  -6.535  0.00  0.00    +0.044 C 
ATOM     21  C   LIG    1       -4.206  -6.963  -5.820  0.00  0.00    -0.050 A 
ATOM     22  C   LIG    1       -2.825  -6.993  -5.655  0.00  0.00    +0.013 A 
ATOM     23  C   LIG    1       -2.188  -8.057  -5.000  0.00  0.00    +0.004 A 
ATOM     24  C   LIG    1       -2.981  -9.115  -4.511  0.00  0.00    -0.041 A 
ATOM     25  C   LIG    1       -2.362 -10.305  -3.796  0.00  0.00    +0.044 C 
ATOM     26  C   LIG    1       -4.363  -9.080  -4.679  0.00  0.00    +0.004 A 
ATOM     27  C   LIG    1       -4.973  -8.014  -5.331  0.00  0.00    +0.003 A 
ENDBRANCH  15  23
ENDBRANCH   1  17
TORSDOF 3
