REMARK  Name = ZINC000006086011
REMARK                            x       y       z     vdW  Elec       q    Type
REMARK                         _______ _______ _______ _____ _____    ______ ____
ROOT
ATOM      1  N   LIG    1        3.207  -3.822  -2.137  0.00  0.00    -0.286 NA
ATOM      2  C   LIG    1        4.032  -3.006  -1.220  0.00  0.00    +0.106 C 
ENDROOT
BRANCH   1   3
ATOM      3  C   LIG    1        3.485  -3.536  -3.600  0.00  0.00    +0.140 C 
ATOM      4  C   LIG    1        2.826  -2.203  -4.028  0.00  0.00    +0.034 C 
BRANCH   3   7
ATOM      5  N   LIG    1        3.263  -5.945  -3.947  0.00  0.00    -0.281 N 
ATOM      6  H   LIG    1        3.757  -5.905  -3.040  0.00  0.00    +0.155 HD
ATOM      7  C   LIG    1        2.962  -4.709  -4.456  0.00  0.00    +0.234 C 
ATOM      8  O   LIG    1        2.303  -4.584  -5.471  0.00  0.00    -0.274 OA
BRANCH   5  10
ATOM      9  C   LIG    1        3.157  -8.294  -3.482  0.00  0.00    +0.141 A 
ATOM     10  C   LIG    1        2.937  -7.252  -4.395  0.00  0.00    +0.076 A 
ATOM     11  C   LIG    1        2.435  -7.533  -5.667  0.00  0.00    +0.027 A 
ATOM     12  C   LIG    1        2.145  -8.850  -6.015  0.00  0.00    +0.002 A 
ATOM     13  C   LIG    1        2.358  -9.885  -5.104  0.00  0.00    +0.004 A 
ATOM     14  C   LIG    1        2.866  -9.611  -3.836  0.00  0.00    +0.047 A 
BRANCH   9  16
ATOM     15  C   LIG    1        3.964  -8.923  -1.178  0.00  0.00    +0.277 C 
ATOM     16  O   LIG    1        3.657  -7.967  -2.223  0.00  0.00    -0.493 OA
ENDBRANCH   9  16
ENDBRANCH   5  10
ENDBRANCH   3   7
ENDBRANCH   1   3
BRANCH   1  17
ATOM     17  C   LIG    1        1.740  -3.759  -1.770  0.00  0.00    +0.181 C 
BRANCH  17  18
ATOM     18  C   LIG    1        1.467  -4.648  -0.560  0.00  0.00    +0.231 C 
ATOM     19  N   LIG    1        1.600  -6.002  -0.748  0.00  0.00    -0.284 N 
ATOM     20  H   LIG    1        1.907  -6.296  -1.687  0.00  0.00    +0.155 HD
ATOM     21  O   LIG    1        1.120  -4.195   0.514  0.00  0.00    -0.274 OA
BRANCH  19  22
ATOM     22  C   LIG    1        1.318  -7.034   0.177  0.00  0.00    +0.041 A 
ATOM     23  C   LIG    1        0.740  -8.245  -0.317  0.00  0.00    +0.003 A 
ATOM     24  C   LIG    1        0.356  -8.433  -1.674  0.00  0.00    +0.010 A 
ATOM     25  C   LIG    1       -0.162  -9.632  -2.102  0.00  0.00    +0.001 A 
ATOM     26  C   LIG    1       -0.335 -10.695  -1.195  0.00  0.00    +0.001 A 
ATOM     27  C   LIG    1        0.007 -10.538   0.127  0.00  0.00    +0.008 A 
ATOM     28  C   LIG    1        0.542  -9.312   0.597  0.00  0.00    -0.016 A 
ATOM     29  C   LIG    1        0.882  -9.135   1.963  0.00  0.00    +0.008 A 
ATOM     30  C   LIG    1        1.416  -7.948   2.409  0.00  0.00    +0.002 A 
ATOM     31  C   LIG    1        1.643  -6.888   1.513  0.00  0.00    +0.024 A 
ENDBRANCH  19  22
ENDBRANCH  17  18
ENDBRANCH   1  17
TORSDOF 7
