REMARK  Name = ZINC000009075134
REMARK                            x       y       z     vdW  Elec       q    Type
REMARK                         _______ _______ _______ _____ _____    ______ ____
ROOT
ATOM      1  C   LIG    1        4.058  -2.147  -0.410  0.00  0.00    +0.061 A 
ATOM      2  C   LIG    1        3.274  -3.218   0.053  0.00  0.00    +0.039 A 
ATOM      3  C   LIG    1        3.747  -4.520  -0.028  0.00  0.00    +0.048 A 
ATOM      4  N   LIG    1        2.899  -5.573   0.401  0.00  0.00    -0.284 N 
ATOM      5  H   LIG    1        1.883  -5.424   0.465  0.00  0.00    +0.155 HD
ATOM      6  C   LIG    1        3.299  -6.845   0.656  0.00  0.00    +0.227 C 
ATOM      7  C   LIG    1        4.770  -7.204   0.750  0.00  0.00    +0.170 C 
ATOM      8  S   LIG    1        5.634  -6.428  -0.667  0.00  0.00    -0.114 S 
ATOM      9  O   LIG    1        2.415  -7.652   0.842  0.00  0.00    -0.275 OA
ATOM     10  C   LIG    1        5.019  -4.799  -0.567  0.00  0.00    +0.030 A 
ATOM     11  C   LIG    1        5.794  -3.737  -1.041  0.00  0.00    +0.017 A 
ATOM     12  C   LIG    1        5.323  -2.431  -0.960  0.00  0.00    +0.016 A 
ENDROOT
BRANCH   1  14
ATOM     13  O   LIG    1        2.478  -0.476   0.167  0.00  0.00    -0.245 OA
ATOM     14  C   LIG    1        3.561  -0.778  -0.316  0.00  0.00    +0.340 C 
BRANCH  14  15
ATOM     15  O   LIG    1        4.338   0.220  -0.801  0.00  0.00    -0.456 OA
BRANCH  15  16
ATOM     16  C   LIG    1        4.008   1.624  -0.630  0.00  0.00    +0.268 C 
BRANCH  16  17
ATOM     17  C   LIG    1        4.650   2.018   0.687  0.00  0.00    -0.010 A 
ATOM     18  C   LIG    1        3.920   1.949   1.874  0.00  0.00    +0.008 A 
ATOM     19  C   LIG    1        4.509   2.308   3.083  0.00  0.00    +0.015 A 
ATOM     20  C   LIG    1        5.834   2.736   3.115  0.00  0.00    +0.018 A 
ATOM     21 BR   LIG    1        6.634   3.225   4.759  0.00  0.00    -0.050 Br
ATOM     22  C   LIG    1        6.568   2.800   1.934  0.00  0.00    +0.015 A 
ATOM     23  C   LIG    1        5.979   2.440   0.725  0.00  0.00    +0.008 A 
ENDBRANCH  16  17
ENDBRANCH  15  16
ENDBRANCH  14  15
ENDBRANCH   1  14
TORSDOF 4
