REMARK  Name = ZINC000009069080
REMARK                            x       y       z     vdW  Elec       q    Type
REMARK                         _______ _______ _______ _____ _____    ______ ____
ROOT
ATOM      1  C   LIG    1        8.483   1.356  -2.984  0.00  0.00    +0.150 C 
ENDROOT
BRANCH   1   6
ATOM      2  N   LIG    1        7.134   0.709  -0.225  0.00  0.00    -0.234 N 
ATOM      3  C   LIG    1        8.179  -0.181  -0.258  0.00  0.00    +0.408 C 
ATOM      4  O   LIG    1        8.195  -1.301   0.224  0.00  0.00    -0.226 OA
ATOM      5  O   LIG    1        9.219   0.346  -0.919  0.00  0.00    -0.444 OA
ATOM      6  C   LIG    1        8.825   1.612  -1.504  0.00  0.00    +0.213 C 
ATOM      7  C   LIG    1        7.541   1.998  -0.755  0.00  0.00    +0.163 C 
BRANCH   2  12
ATOM      8  C   LIG    1        1.853  -0.264   1.760  0.00  0.00    +0.044 C 
ATOM      9  C   LIG    1        3.256  -0.016   1.250  0.00  0.00    -0.050 A 
ATOM     10  C   LIG    1        3.839   1.243   1.386  0.00  0.00    +0.005 A 
ATOM     11  C   LIG    1        5.125   1.481   0.912  0.00  0.00    +0.024 A 
ATOM     12  C   LIG    1        5.833   0.450   0.289  0.00  0.00    +0.040 A 
ATOM     13  C   LIG    1        5.255  -0.814   0.146  0.00  0.00    +0.024 A 
ATOM     14  C   LIG    1        3.970  -1.040   0.626  0.00  0.00    +0.005 A 
ENDBRANCH   2  12
ENDBRANCH   1   6
BRANCH   1  15
ATOM     15  N   LIG    1        9.754   1.068  -3.664  0.00  0.00    -0.308 N 
ATOM     16  H   LIG    1       10.171   0.137  -3.513  0.00  0.00    +0.149 HD
ATOM     17  C   LIG    1       10.562   2.057  -4.153  0.00  0.00    +0.245 C 
ATOM     18  O   LIG    1       10.139   3.202  -4.115  0.00  0.00    -0.270 OA
BRANCH  17  19
ATOM     19  C   LIG    1       11.878   1.689  -4.683  0.00  0.00    +0.048 A 
ATOM     20  C   LIG    1       13.073   2.333  -4.286  0.00  0.00    +0.067 A 
ATOM     21  C   LIG    1       14.282   1.934  -4.876  0.00  0.00    +0.013 A 
ATOM     22  C   LIG    1       14.318   0.910  -5.815  0.00  0.00    +0.001 A 
ATOM     23  C   LIG    1       13.147   0.267  -6.190  0.00  0.00    +0.001 A 
ATOM     24  C   LIG    1       11.938   0.655  -5.630  0.00  0.00    +0.013 A 
BRANCH  20  25
ATOM     25  C   LIG    1       13.067   3.453  -3.230  0.00  0.00    +0.418 C 
ATOM     26  F   LIG    1       12.621   4.596  -3.766  0.00  0.00    -0.166 F 
ATOM     27  F   LIG    1       14.318   3.669  -2.775  0.00  0.00    -0.166 F 
ATOM     28  F   LIG    1       12.309   3.108  -2.171  0.00  0.00    -0.166 F 
ENDBRANCH  20  25
ENDBRANCH  17  19
ENDBRANCH   1  15
TORSDOF 5
