REMARK  Name = ZINC000022624335
REMARK                            x       y       z     vdW  Elec       q    Type
REMARK                         _______ _______ _______ _____ _____    ______ ____
ROOT
ATOM      1  C   LIG    1        7.220  -6.038  -1.961  0.00  0.00    +0.121 A 
ATOM      2  N   LIG    1        6.446  -7.111  -1.750  0.00  0.00    -0.238 NA
ATOM      3  C   LIG    1        6.750  -8.255  -2.365  0.00  0.00    +0.136 A 
ATOM      4  C   LIG    1        7.854  -8.368  -3.217  0.00  0.00    +0.052 A 
ATOM      5  C   LIG    1        8.676  -7.263  -3.435  0.00  0.00    +0.028 A 
ATOM      6  C   LIG    1        8.349  -6.084  -2.791  0.00  0.00    +0.045 A 
ENDROOT
BRANCH   1  11
ATOM      7  C   LIG    1        4.367  -1.877  -0.327  0.00  0.00    +0.221 C 
ATOM      8  N   LIG    1        5.565  -2.516  -0.388  0.00  0.00    -0.298 N 
ATOM      9  C   LIG    1        6.623  -2.406  -1.424  0.00  0.00    +0.126 C 
ATOM     10  C   LIG    1        6.594  -3.716  -2.250  0.00  0.00    +0.125 C 
ATOM     11  N   LIG    1        6.870  -4.843  -1.322  0.00  0.00    -0.312 N 
ATOM     12  C   LIG    1        5.831  -4.939  -0.249  0.00  0.00    +0.125 C 
ATOM     13  C   LIG    1        5.874  -3.624   0.563  0.00  0.00    +0.126 C 
ATOM     14  O   LIG    1        3.573  -2.201   0.555  0.00  0.00    -0.275 OA
BRANCH   7  15
ATOM     15  C   LIG    1        3.935  -0.738  -1.325  0.00  0.00    +0.041 C 
ATOM     16  C   LIG    1        2.545  -0.165  -0.932  0.00  0.00    +0.020 C 
ATOM     17  C   LIG    1        4.853   0.506  -1.235  0.00  0.00    +0.020 C 
BRANCH  15  19
ATOM     18  C   LIG    1        2.947  -2.461  -3.023  0.00  0.00    +0.005 C 
ATOM     19  C   LIG    1        3.807  -1.204  -2.805  0.00  0.00    +0.012 C 
ENDBRANCH  15  19
ENDBRANCH   7  15
ENDBRANCH   1  11
BRANCH   4  20
ATOM     20  N   LIG    1        8.139  -9.630  -3.817  0.00  0.00    -0.280 N 
ATOM     21  H   LIG    1        7.895 -10.475  -3.288  0.00  0.00    +0.155 HD
ATOM     22  C   LIG    1        8.631  -9.839  -5.088  0.00  0.00    +0.248 C 
ATOM     23  O   LIG    1        8.729  -8.883  -5.846  0.00  0.00    -0.270 OA
BRANCH  22  24
ATOM     24  C   LIG    1        8.972 -11.209  -5.483  0.00  0.00    +0.037 A 
ATOM     25  C   LIG    1        9.409 -12.159  -4.538  0.00  0.00    +0.016 A 
ATOM     26  C   LIG    1        9.715 -13.458  -4.933  0.00  0.00    +0.039 A 
ATOM     27  C   LIG    1        9.589 -13.798  -6.273  0.00  0.00    +0.123 A 
ATOM     28  F   LIG    1        9.885 -15.065  -6.657  0.00  0.00    -0.205 F 
ATOM     29  C   LIG    1        9.175 -12.885  -7.233  0.00  0.00    +0.039 A 
ATOM     30  C   LIG    1        8.870 -11.588  -6.834  0.00  0.00    +0.016 A 
ENDBRANCH  22  24
ENDBRANCH   4  20
TORSDOF 5
