REMARK  Name = ZINC000049404823
REMARK                            x       y       z     vdW  Elec       q    Type
REMARK                         _______ _______ _______ _____ _____    ______ ____
ROOT
ATOM      1  N   LIG    1        8.586  -2.128   0.065  0.00  0.00    -0.199 N 
ENDROOT
BRANCH   1   2
ATOM      2  C   LIG    1        8.928  -3.488   0.012  0.00  0.00    +0.052 A 
ATOM      3  C   LIG    1        9.054  -4.183  -1.197  0.00  0.00    +0.025 A 
ATOM      4  C   LIG    1        9.425  -5.523  -1.180  0.00  0.00    +0.002 A 
ATOM      5  C   LIG    1        9.664  -6.170   0.032  0.00  0.00    +0.000 A 
ATOM      6  C   LIG    1        9.529  -5.475   1.232  0.00  0.00    +0.002 A 
ATOM      7  C   LIG    1        9.159  -4.135   1.225  0.00  0.00    +0.025 A 
ENDBRANCH   1   2
BRANCH   1   8
ATOM      8  S   LIG    1        9.779  -1.126  -0.528  0.00  0.00    +0.079 S 
ATOM      9  O   LIG    1        9.904  -1.359  -1.926  0.00  0.00    -0.150 OA
ATOM     10  O   LIG    1        9.486   0.209  -0.150  0.00  0.00    -0.150 OA
BRANCH   8  17
ATOM     11  C   LIG    1       13.358  -2.234   4.673  0.00  0.00    +0.088 C 
ATOM     12  C   LIG    1       12.325  -1.868   3.631  0.00  0.00    +0.135 A 
ATOM     13  N   LIG    1       12.513  -2.013   2.314  0.00  0.00    -0.285 N 
ATOM     14  C   LIG    1       13.623  -2.505   1.613  0.00  0.00    +0.094 A 
ATOM     15  C   LIG    1       13.550  -2.568   0.252  0.00  0.00    +0.020 A 
ATOM     16  C   LIG    1       12.369  -2.140  -0.429  0.00  0.00    +0.034 A 
ATOM     17  C   LIG    1       11.298  -1.656   0.280  0.00  0.00    +0.153 A 
ATOM     18  C   LIG    1       11.383  -1.590   1.704  0.00  0.00    +0.188 A 
ATOM     19  N   LIG    1       10.534  -1.197   2.628  0.00  0.00    -0.127 NA
ATOM     20  N   LIG    1       11.139  -1.379   3.834  0.00  0.00    -0.134 NA
ENDBRANCH   8  17
ENDBRANCH   1   8
BRANCH   1  21
ATOM     21  C   LIG    1        7.334  -1.748  -0.591  0.00  0.00    +0.166 C 
BRANCH  21  22
ATOM     22  C   LIG    1        6.233  -2.465   0.171  0.00  0.00    -0.028 A 
ATOM     23  C   LIG    1        5.974  -2.131   1.500  0.00  0.00    +0.008 A 
ATOM     24  C   LIG    1        4.966  -2.777   2.212  0.00  0.00    -0.050 A 
ATOM     25  C   LIG    1        4.712  -2.409   3.658  0.00  0.00    +0.044 C 
ATOM     26  C   LIG    1        4.218  -3.772   1.590  0.00  0.00    +0.003 A 
ATOM     27  C   LIG    1        4.472  -4.115   0.266  0.00  0.00    +0.001 A 
ATOM     28  C   LIG    1        5.477  -3.464  -0.442  0.00  0.00    +0.005 A 
ENDBRANCH  21  22
ENDBRANCH   1  21
TORSDOF 5
