REMARK  Name = ZINC000022624866
REMARK                            x       y       z     vdW  Elec       q    Type
REMARK                         _______ _______ _______ _____ _____    ______ ____
ROOT
ATOM      1  C   LIG    1        8.718  -2.963   6.395  0.00  0.00    +0.121 A 
ATOM      2  N   LIG    1        7.766  -3.723   6.954  0.00  0.00    -0.238 NA
ATOM      3  C   LIG    1        7.668  -3.760   8.283  0.00  0.00    +0.136 A 
ATOM      4  C   LIG    1        8.530  -3.033   9.111  0.00  0.00    +0.052 A 
ATOM      5  C   LIG    1        9.543  -2.261   8.546  0.00  0.00    +0.028 A 
ATOM      6  C   LIG    1        9.634  -2.233   7.166  0.00  0.00    +0.045 A 
ENDROOT
BRANCH   1  11
ATOM      7  C   LIG    1        6.316  -1.597   2.166  0.00  0.00    +0.219 C 
ATOM      8  N   LIG    1        6.652  -1.918   3.435  0.00  0.00    -0.298 N 
ATOM      9  C   LIG    1        7.450  -0.981   4.269  0.00  0.00    +0.126 C 
ATOM     10  C   LIG    1        8.877  -1.577   4.344  0.00  0.00    +0.125 C 
ATOM     11  N   LIG    1        8.773  -2.920   4.992  0.00  0.00    -0.312 N 
ATOM     12  C   LIG    1        7.917  -3.859   4.202  0.00  0.00    +0.125 C 
ATOM     13  C   LIG    1        6.494  -3.248   4.084  0.00  0.00    +0.126 C 
ATOM     14  O   LIG    1        6.558  -0.474   1.729  0.00  0.00    -0.275 OA
BRANCH   7  15
ATOM     15  C   LIG    1        5.567  -2.614   1.267  0.00  0.00    +0.075 C 
BRANCH  15  17
ATOM     16  C   LIG    1        3.277  -3.815   1.063  0.00  0.00    +0.004 C 
ATOM     17  C   LIG    1        4.063  -2.622   1.628  0.00  0.00    +0.009 C 
ENDBRANCH  15  17
BRANCH  15  18
ATOM     18  C   LIG    1        5.767  -2.350  -0.247  0.00  0.00    +0.009 C 
ATOM     19  C   LIG    1        7.229  -2.524  -0.687  0.00  0.00    +0.004 C 
ENDBRANCH  15  18
ENDBRANCH   7  15
ENDBRANCH   1  11
BRANCH   4  20
ATOM     20  N   LIG    1        8.368  -3.132  10.524  0.00  0.00    -0.280 N 
ATOM     21  H   LIG    1        8.027  -4.028  10.901  0.00  0.00    +0.155 HD
ATOM     22  C   LIG    1        8.525  -2.124  11.452  0.00  0.00    +0.251 C 
ATOM     23  O   LIG    1        8.801  -1.005  11.037  0.00  0.00    -0.270 OA
BRANCH  22  24
ATOM     24  C   LIG    1        8.365  -2.407  12.884  0.00  0.00    +0.072 A 
ATOM     25  C   LIG    1        7.752  -3.567  13.391  0.00  0.00    +0.135 A 
ATOM     26  F   LIG    1        7.241  -4.525  12.561  0.00  0.00    -0.205 F 
ATOM     27  C   LIG    1        7.620  -3.809  14.753  0.00  0.00    +0.039 A 
ATOM     28  C   LIG    1        8.105  -2.871  15.658  0.00  0.00    +0.003 A 
ATOM     29  C   LIG    1        8.712  -1.707  15.192  0.00  0.00    +0.001 A 
ATOM     30  C   LIG    1        8.840  -1.477  13.824  0.00  0.00    +0.016 A 
ENDBRANCH  22  24
ENDBRANCH   4  20
TORSDOF 6
