REMARK  Name = ZINC000006080848
REMARK                            x       y       z     vdW  Elec       q    Type
REMARK                         _______ _______ _______ _____ _____    ______ ____
ROOT
ATOM      1  C   LIG    1        6.356   2.072  -2.170  0.00  0.00    +0.202 C 
ATOM      2  O   LIG    1        6.855   1.906  -3.269  0.00  0.00    -0.288 OA
ENDROOT
BRANCH   1   8
ATOM      3  C   LIG    1        3.604  -0.282   1.395  0.00  0.00    +0.063 C 
ATOM      4  C   LIG    1        4.356   0.046   0.122  0.00  0.00    +0.017 A 
ATOM      5  N   LIG    1        4.481  -0.816  -0.947  0.00  0.00    -0.343 N 
ATOM      6  C   LIG    1        5.205  -0.207  -1.943  0.00  0.00    +0.027 A 
ATOM      7  C   LIG    1        5.525  -0.900  -3.260  0.00  0.00    +0.064 C 
ATOM      8  C   LIG    1        5.562   1.051  -1.493  0.00  0.00    +0.042 A 
ATOM      9  C   LIG    1        5.013   1.188  -0.202  0.00  0.00    +0.034 A 
BRANCH   5  10
ATOM     10  C   LIG    1        3.931  -2.184  -0.989  0.00  0.00    +0.156 C 
BRANCH  10  11
ATOM     11  C   LIG    1        2.420  -2.092  -1.176  0.00  0.00    -0.028 A 
ATOM     12  C   LIG    1        1.583  -2.886  -0.383  0.00  0.00    +0.008 A 
ATOM     13  C   LIG    1        0.201  -2.828  -0.540  0.00  0.00    +0.038 A 
ATOM     14  C   LIG    1       -0.327  -1.973  -1.497  0.00  0.00    +0.123 A 
ATOM     15  F   LIG    1       -1.670  -1.914  -1.652  0.00  0.00    -0.205 F 
ATOM     16  C   LIG    1        0.477  -1.177  -2.300  0.00  0.00    +0.038 A 
ATOM     17  C   LIG    1        1.858  -1.241  -2.137  0.00  0.00    +0.008 A 
ENDBRANCH  10  11
ENDBRANCH   5  10
ENDBRANCH   1   8
BRANCH   1  18
ATOM     18  C   LIG    1        6.607   3.407  -1.499  0.00  0.00    +0.311 C 
BRANCH  18  19
ATOM     19  O   LIG    1        7.538   3.149  -0.390  0.00  0.00    -0.453 OA
BRANCH  19  20
ATOM     20  C   LIG    1        7.580   3.941   0.706  0.00  0.00    +0.343 C 
ATOM     21  O   LIG    1        6.859   4.928   0.697  0.00  0.00    -0.245 OA
BRANCH  20  22
ATOM     22  C   LIG    1        8.499   3.547   1.770  0.00  0.00    +0.100 A 
ATOM     23  C   LIG    1        8.237   3.805   3.133  0.00  0.00    +0.134 A 
ATOM     24  C   LIG    1        9.137   3.441   4.131  0.00  0.00    +0.091 A 
ATOM     25  C   LIG    1       10.309   2.792   3.768  0.00  0.00    +0.120 A 
ATOM     26  C   LIG    1       10.597   2.499   2.435  0.00  0.00    +0.046 A 
ATOM     27  C   LIG    1        9.694   2.874   1.446  0.00  0.00    +0.022 A 
BRANCH  23  28
ATOM     28  O   LIG    1        7.078   4.398   3.526  0.00  0.00    -0.506 OA
ATOM     29  H   LIG    1        7.059   4.554   4.489  0.00  0.00    +0.292 HD
ENDBRANCH  23  28
BRANCH  25  30
ATOM     30  O   LIG    1       11.182   2.438   4.740  0.00  0.00    -0.507 OA
ATOM     31  H   LIG    1       11.968   1.994   4.369  0.00  0.00    +0.292 HD
ENDBRANCH  25  30
ENDBRANCH  20  22
ENDBRANCH  19  20
ENDBRANCH  18  19
ENDBRANCH   1  18
TORSDOF 9
