REMARK  Name = ZINC000000622287
REMARK                            x       y       z     vdW  Elec       q    Type
REMARK                         _______ _______ _______ _____ _____    ______ ____
ROOT
ATOM      1  N   LIG    1        7.514  -6.168  -1.087  0.00  0.00    -0.262 N 
ATOM      2  H   LIG    1        6.677  -5.612  -0.888  0.00  0.00    +0.157 HD
ATOM      3  C   LIG    1        7.779  -6.320  -2.413  0.00  0.00    +0.256 C 
ATOM      4  O   LIG    1        7.075  -5.651  -3.142  0.00  0.00    -0.272 OA
ENDROOT
BRANCH   1   9
ATOM      5  C   LIG    1        8.823  -7.503   2.159  0.00  0.00    +0.120 A 
ATOM      6  C   LIG    1        9.783  -7.618   1.178  0.00  0.00    +0.062 A 
ATOM      7  C   LIG    1       11.162  -8.205   1.379  0.00  0.00    +0.067 C 
ATOM      8  N   LIG    1        9.428  -7.163  -0.044  0.00  0.00    -0.229 NA
ATOM      9  C   LIG    1        8.202  -6.715  -0.009  0.00  0.00    +0.165 A 
ATOM     10  S   LIG    1        7.400  -6.784   1.505  0.00  0.00    -0.045 S 
BRANCH   5  11
ATOM     11  C   LIG    1        8.902  -7.897   3.549  0.00  0.00    +0.348 C 
ATOM     12  O   LIG    1        9.877  -8.422   4.074  0.00  0.00    -0.244 OA
BRANCH  11  13
ATOM     13  O   LIG    1        7.816  -7.668   4.332  0.00  0.00    -0.461 OA
BRANCH  13  15
ATOM     14  C   LIG    1        8.290  -6.730   6.459  0.00  0.00    +0.048 C 
ATOM     15  C   LIG    1        7.765  -7.978   5.749  0.00  0.00    +0.229 C 
ENDBRANCH  13  15
ENDBRANCH  11  13
ENDBRANCH   5  11
ENDBRANCH   1   9
BRANCH   3  16
ATOM     16  C   LIG    1        8.822  -7.278  -2.978  0.00  0.00    +0.324 C 
BRANCH  16  17
ATOM     17  O   LIG    1        8.414  -8.644  -2.625  0.00  0.00    -0.483 OA
BRANCH  17  18
ATOM     18  C   LIG    1        7.258  -9.283  -3.012  0.00  0.00    +0.121 A 
ATOM     19  C   LIG    1        6.935 -10.459  -2.349  0.00  0.00    +0.046 A 
ATOM     20  C   LIG    1        5.772 -11.145  -2.685  0.00  0.00    +0.008 A 
ATOM     21  C   LIG    1        4.918 -10.664  -3.689  0.00  0.00    -0.042 A 
ATOM     22  C   LIG    1        5.271  -9.478  -4.349  0.00  0.00    +0.008 A 
ATOM     23  C   LIG    1        6.432  -8.788  -4.019  0.00  0.00    +0.046 A 
BRANCH  21  24
ATOM     24  C   LIG    1        3.618 -11.387  -4.092  0.00  0.00    -0.013 C 
ATOM     25  C   LIG    1        2.415 -10.452  -3.883  0.00  0.00    +0.015 C 
ATOM     26  C   LIG    1        3.349 -12.660  -3.267  0.00  0.00    +0.015 C 
ATOM     27  C   LIG    1        3.697 -11.811  -5.567  0.00  0.00    +0.015 C 
ENDBRANCH  21  24
ENDBRANCH  17  18
ENDBRANCH  16  17
ENDBRANCH   3  16
TORSDOF 8
