REMARK  Name = ZINC000049410107
REMARK                            x       y       z     vdW  Elec       q    Type
REMARK                         _______ _______ _______ _____ _____    ______ ____
ROOT
ATOM      1  C   LIG    1       11.213  -0.021   0.010  0.00  0.00    +0.193 A 
ATOM      2  C   LIG    1       12.014   1.181  -0.017  0.00  0.00    +0.220 A 
ATOM      3  O   LIG    1       11.578   2.298   0.297  0.00  0.00    -0.285 OA
ATOM      4  C   LIG    1       13.386   1.071  -0.457  0.00  0.00    +0.049 A 
ATOM      5  C   LIG    1       14.264   2.171  -0.487  0.00  0.00    +0.014 A 
ATOM      6  C   LIG    1       15.572   2.020  -0.924  0.00  0.00    +0.001 A 
ATOM      7  C   LIG    1       16.036   0.769  -1.343  0.00  0.00    +0.002 A 
ATOM      8  C   LIG    1       15.192  -0.331  -1.323  0.00  0.00    +0.028 A 
ATOM      9  C   LIG    1       13.871  -0.175  -0.878  0.00  0.00    +0.077 A 
ATOM     10  N   LIG    1       12.985  -1.285  -0.842  0.00  0.00    -0.231 N 
ATOM     11  N   LIG    1       11.716  -1.175  -0.404  0.00  0.00    -0.157 NA
ENDROOT
BRANCH  10  12
ATOM     12  C   LIG    1       13.394  -2.581  -1.259  0.00  0.00    +0.066 A 
ATOM     13  C   LIG    1       14.024  -3.421  -0.342  0.00  0.00    +0.028 A 
ATOM     14  C   LIG    1       14.438  -4.682  -0.760  0.00  0.00    +0.002 A 
ATOM     15  C   LIG    1       14.218  -5.089  -2.076  0.00  0.00    +0.000 A 
ATOM     16  C   LIG    1       13.581  -4.239  -2.982  0.00  0.00    +0.002 A 
ATOM     17  C   LIG    1       13.163  -2.976  -2.575  0.00  0.00    +0.028 A 
ENDBRANCH  10  12
BRANCH   1  20
ATOM     18  N   LIG    1        9.085  -1.165   0.293  0.00  0.00    -0.280 N 
ATOM     19  H   LIG    1        9.634  -1.952  -0.084  0.00  0.00    +0.155 HD
ATOM     20  C   LIG    1        9.829  -0.005   0.487  0.00  0.00    +0.272 C 
ATOM     21  O   LIG    1        9.278   0.927   1.068  0.00  0.00    -0.268 OA
BRANCH  18  25
ATOM     22  C   LIG    1        5.093  -2.045   1.223  0.00  0.00    +0.033 A 
ATOM     23  C   LIG    1        6.068  -3.045   1.252  0.00  0.00    +0.025 A 
ATOM     24  C   LIG    1        7.388  -2.730   0.948  0.00  0.00    +0.025 A 
ATOM     25  C   LIG    1        7.728  -1.416   0.618  0.00  0.00    +0.034 A 
ATOM     26  C   LIG    1        6.751  -0.415   0.579  0.00  0.00    +0.025 A 
ATOM     27  C   LIG    1        5.430  -0.730   0.883  0.00  0.00    +0.025 A 
BRANCH  22  30
ATOM     28  C   LIG    1        1.445  -2.354   2.273  0.00  0.00    +0.109 C 
ATOM     29  C   LIG    1        2.777  -1.680   2.096  0.00  0.00    +0.214 C 
ATOM     30  N   LIG    1        3.760  -2.435   1.516  0.00  0.00    -0.286 N 
ATOM     31  H   LIG    1        3.508  -3.407   1.311  0.00  0.00    +0.155 HD
ATOM     32  O   LIG    1        2.978  -0.545   2.462  0.00  0.00    -0.276 OA
ENDBRANCH  22  30
ENDBRANCH  18  25
ENDBRANCH   1  20
TORSDOF 4
