REMARK  Name = ZINC000000538144
REMARK                            x       y       z     vdW  Elec       q    Type
REMARK                         _______ _______ _______ _____ _____    ______ ____
ROOT
ATOM      1  C   LIG    1        4.688  -3.080   0.441  0.00  0.00    +0.163 A 
ATOM      2  C   LIG    1        5.902  -3.275  -0.292  0.00  0.00    +0.162 A 
ATOM      3  C   LIG    1        5.899  -3.270  -1.677  0.00  0.00    +0.059 A 
ATOM      4  C   LIG    1        4.690  -3.062  -2.365  0.00  0.00    +0.007 A 
ATOM      5  C   LIG    1        4.350  -2.983  -3.737  0.00  0.00    -0.018 A 
ATOM      6  C   LIG    1        3.012  -2.752  -3.829  0.00  0.00    +0.017 A 
ATOM      7  C   LIG    1        2.126  -2.587  -5.045  0.00  0.00    +0.063 C 
ATOM      8  N   LIG    1        2.501  -2.696  -2.547  0.00  0.00    -0.358 N 
ATOM      9  H   LIG    1        1.511  -2.542  -2.303  0.00  0.00    +0.166 HD
ATOM     10  C   LIG    1        3.523  -2.877  -1.634  0.00  0.00    +0.051 A 
ATOM     11  C   LIG    1        3.488  -2.882  -0.232  0.00  0.00    +0.075 A 
ENDROOT
BRANCH   1  13
ATOM     12  C   LIG    1        3.555  -2.913   2.698  0.00  0.00    +0.277 C 
ATOM     13  O   LIG    1        4.701  -3.089   1.835  0.00  0.00    -0.491 OA
ENDBRANCH   1  13
BRANCH   2  14
ATOM     14  O   LIG    1        7.155  -3.477   0.292  0.00  0.00    -0.491 OA
ATOM     15  C   LIG    1        7.492  -3.476   1.696  0.00  0.00    +0.277 C 
ENDBRANCH   2  14
BRANCH   5  16
ATOM     16  C   LIG    1        5.331  -3.117  -4.883  0.00  0.00    +0.053 C 
BRANCH  16  17
ATOM     17  C   LIG    1        6.088  -1.780  -4.927  0.00  0.00    +0.089 C 
BRANCH  17  18
ATOM     18  N   LIG    1        7.111  -1.888  -6.003  0.00  0.00    -0.299 NA
ATOM     19  C   LIG    1        8.352  -2.634  -5.601  0.00  0.00    +0.103 C 
ATOM     20  C   LIG    1        9.181  -1.835  -4.556  0.00  0.00    +0.120 C 
ATOM     21  N   LIG    1        9.510  -0.509  -5.138  0.00  0.00    -0.327 N 
ATOM     22  C   LIG    1        8.286   0.257  -5.475  0.00  0.00    +0.120 C 
ATOM     23  C   LIG    1        7.500  -0.550  -6.543  0.00  0.00    +0.103 C 
BRANCH  21  24
ATOM     24  C   LIG    1       10.552   0.162  -4.460  0.00  0.00    +0.030 A 
ATOM     25  C   LIG    1       10.338   1.360  -3.764  0.00  0.00    +0.023 A 
ATOM     26  C   LIG    1       11.397   1.976  -3.106  0.00  0.00    +0.002 A 
ATOM     27  C   LIG    1       12.669   1.409  -3.137  0.00  0.00    +0.000 A 
ATOM     28  C   LIG    1       12.883   0.221  -3.832  0.00  0.00    +0.002 A 
ATOM     29  C   LIG    1       11.831  -0.400  -4.495  0.00  0.00    +0.023 A 
ENDBRANCH  21  24
ENDBRANCH  17  18
ENDBRANCH  16  17
ENDBRANCH   5  16
TORSDOF 6
