REMARK  Name = ZINC000009037753
REMARK                            x       y       z     vdW  Elec       q    Type
REMARK                         _______ _______ _______ _____ _____    ______ ____
ROOT
ATOM      1  C   LIG    1        2.111  -3.878   0.023  0.00  0.00    +0.034 A 
ATOM      2  C   LIG    1        1.848  -4.001   1.386  0.00  0.00    +0.028 A 
ATOM      3  C   LIG    1        1.685  -5.263   1.956  0.00  0.00    -0.025 A 
ATOM      4  C   LIG    1        1.425  -5.345   3.458  0.00  0.00    +0.143 C 
ATOM      5  N   LIG    1        1.129  -6.748   3.807  0.00  0.00    -0.297 N 
ATOM      6  C   LIG    1        2.019  -7.752   3.198  0.00  0.00    +0.113 C 
ATOM      7  C   LIG    1        1.600  -7.798   1.721  0.00  0.00    +0.054 C 
ATOM      8  C   LIG    1        0.048  -7.128   4.569  0.00  0.00    +0.219 C 
ATOM      9  O   LIG    1       -0.157  -8.314   4.746  0.00  0.00    -0.275 OA
ATOM     10  C   LIG    1        1.786  -6.404   1.144  0.00  0.00    -0.041 A 
ATOM     11  C   LIG    1        2.039  -6.267  -0.221  0.00  0.00    +0.006 A 
ATOM     12  C   LIG    1        2.202  -5.009  -0.787  0.00  0.00    +0.023 A 
ENDROOT
BRANCH   1  14
ATOM     13  C   LIG    1        3.078  -2.136  -1.509  0.00  0.00    +0.252 C 
ATOM     14  N   LIG    1        2.245  -2.571  -0.499  0.00  0.00    -0.281 N 
ATOM     15  H   LIG    1        1.716  -1.817  -0.038  0.00  0.00    +0.155 HD
ATOM     16  O   LIG    1        3.847  -2.953  -2.003  0.00  0.00    -0.270 OA
BRANCH  13  18
ATOM     17  C   LIG    1        2.325   0.296  -1.281  0.00  0.00    +0.132 A 
ATOM     18  C   LIG    1        3.026  -0.735  -1.957  0.00  0.00    +0.080 A 
ATOM     19  C   LIG    1        3.716  -0.394  -3.132  0.00  0.00    +0.036 A 
ATOM     20  C   LIG    1        3.707   0.909  -3.620  0.00  0.00    +0.042 A 
ATOM     21 CL   LIG    1        4.565   1.295  -5.071  0.00  0.00    -0.084 Cl
ATOM     22  C   LIG    1        3.006   1.908  -2.945  0.00  0.00    +0.023 A 
ATOM     23  C   LIG    1        2.318   1.604  -1.778  0.00  0.00    +0.048 A 
BRANCH  17  25
ATOM     24  C   LIG    1        0.902   0.981   0.706  0.00  0.00    +0.277 C 
ATOM     25  O   LIG    1        1.637   0.027  -0.105  0.00  0.00    -0.494 OA
ENDBRANCH  17  25
ENDBRANCH  13  18
ENDBRANCH   1  14
BRANCH   8  26
ATOM     26  C   LIG    1       -0.864  -6.067   5.175  0.00  0.00    +0.075 C 
ATOM     27  C   LIG    1       -2.302  -6.445   5.406  0.00  0.00    +0.013 C 
ATOM     28  C   LIG    1       -1.934  -5.522   4.268  0.00  0.00    +0.013 C 
ENDBRANCH   8  26
TORSDOF 4
