REMARK  Name = ZINC000000607845
REMARK                            x       y       z     vdW  Elec       q    Type
REMARK                         _______ _______ _______ _____ _____    ______ ____
ROOT
ATOM      1  C   LIG    1        1.458  -3.464   0.990  0.00  0.00    -0.021 A 
ATOM      2  C   LIG    1        0.593  -4.472   1.478  0.00  0.00    +0.003 A 
ATOM      3  C   LIG    1       -0.103  -4.653   2.686  0.00  0.00    +0.014 A 
ATOM      4  C   LIG    1       -0.912  -5.769   2.852  0.00  0.00    -0.045 A 
ATOM      5  C   LIG    1       -1.025  -6.729   1.815  0.00  0.00    +0.006 A 
ATOM      6  C   LIG    1       -0.336  -6.570   0.625  0.00  0.00    +0.026 A 
ATOM      7  C   LIG    1        0.466  -5.431   0.482  0.00  0.00    +0.047 A 
ATOM      8  N   LIG    1        1.246  -5.020  -0.581  0.00  0.00    -0.360 N 
ATOM      9  H   LIG    1        1.358  -5.534  -1.470  0.00  0.00    +0.165 HD
ATOM     10  C   LIG    1        1.845  -3.821  -0.264  0.00  0.00    +0.087 A 
ENDROOT
BRANCH   1  11
ATOM     11  C   LIG    1        1.874  -2.204   1.725  0.00  0.00    +0.056 C 
BRANCH  11  14
ATOM     12  C   LIG    1        1.998   0.028   3.517  0.00  0.00    +0.105 C 
ATOM     13  N   LIG    1        0.867  -0.018   2.572  0.00  0.00    -0.302 NA
ATOM     14  C   LIG    1        0.617  -1.301   1.853  0.00  0.00    +0.061 C 
ATOM     15  C   LIG    1        0.167  -0.856   0.444  0.00  0.00    +0.020 C 
ATOM     16  C   LIG    1       -0.183   0.618   0.638  0.00  0.00    +0.017 C 
ATOM     17  C   LIG    1        0.913   1.066   1.599  0.00  0.00    +0.084 C 
ENDBRANCH  11  14
ENDBRANCH   1  11
BRANCH   4  18
ATOM     18  C   LIG    1       -1.696  -5.949   4.135  0.00  0.00    +0.058 C 
BRANCH  18  19
ATOM     19  C   LIG    1       -3.007  -5.170   3.936  0.00  0.00    +0.176 C 
BRANCH  19  20
ATOM     20  S   LIG    1       -4.135  -5.201   5.309  0.00  0.00    -0.003 S 
ATOM     21  O   LIG    1       -3.516  -4.549   6.413  0.00  0.00    -0.169 OA
ATOM     22  O   LIG    1       -4.561  -6.545   5.507  0.00  0.00    -0.169 OA
BRANCH  20  23
ATOM     23  C   LIG    1       -5.528  -4.212   4.740  0.00  0.00    +0.088 A 
ATOM     24  C   LIG    1       -5.532  -2.825   4.912  0.00  0.00    +0.027 A 
ATOM     25  C   LIG    1       -6.608  -2.059   4.473  0.00  0.00    +0.002 A 
ATOM     26  C   LIG    1       -7.697  -2.674   3.864  0.00  0.00    +0.000 A 
ATOM     27  C   LIG    1       -7.711  -4.054   3.699  0.00  0.00    +0.002 A 
ATOM     28  C   LIG    1       -6.634  -4.819   4.138  0.00  0.00    +0.027 A 
ENDBRANCH  20  23
ENDBRANCH  19  20
ENDBRANCH  18  19
ENDBRANCH   4  18
TORSDOF 6
