REMARK  Name = ZINC000000623203
REMARK                            x       y       z     vdW  Elec       q    Type
REMARK                         _______ _______ _______ _____ _____    ______ ____
ROOT
ATOM      1  C   LIG    1        5.374   1.892  -3.278  0.00  0.00    +0.124 A 
ATOM      2  C   LIG    1        6.556   1.998  -4.034  0.00  0.00    +0.067 A 
ATOM      3 CL   LIG    1        7.551   0.636  -4.437  0.00  0.00    -0.082 Cl
ATOM      4  C   LIG    1        6.975   3.242  -4.514  0.00  0.00    +0.023 A 
ATOM      5  C   LIG    1        6.239   4.385  -4.245  0.00  0.00    +0.014 A 
ATOM      6  C   LIG    1        5.068   4.315  -3.480  0.00  0.00    +0.039 A 
ATOM      7  C   LIG    1        4.651   3.060  -3.012  0.00  0.00    +0.043 A 
ENDROOT
BRANCH   6   8
ATOM      8  C   LIG    1        4.311   5.534  -3.189  0.00  0.00    +0.245 C 
ATOM      9  N   LIG    1        3.533   5.581  -2.066  0.00  0.00    -0.305 N 
ATOM     10  H   LIG    1        3.653   4.837  -1.372  0.00  0.00    +0.150 HD
ATOM     11  O   LIG    1        4.344   6.526  -3.905  0.00  0.00    -0.270 OA
BRANCH   9  12
ATOM     12  C   LIG    1        3.014   6.830  -1.541  0.00  0.00    +0.100 C 
ATOM     13  C   LIG    1        1.577   6.558  -1.081  0.00  0.00    +0.033 C 
BRANCH  12  14
ATOM     14  C   LIG    1        3.891   7.189  -0.348  0.00  0.00    -0.027 A 
ATOM     15  C   LIG    1        4.689   8.331  -0.424  0.00  0.00    +0.005 A 
ATOM     16  C   LIG    1        5.519   8.687   0.635  0.00  0.00    +0.000 A 
ATOM     17  C   LIG    1        5.561   7.901   1.781  0.00  0.00    +0.000 A 
ATOM     18  C   LIG    1        4.774   6.758   1.866  0.00  0.00    +0.000 A 
ATOM     19  C   LIG    1        3.945   6.401   0.807  0.00  0.00    +0.005 A 
ENDBRANCH  12  14
ENDBRANCH   9  12
ENDBRANCH   6   8
BRANCH   1  20
ATOM     20  S   LIG    1        4.761   0.333  -2.603  0.00  0.00    +0.062 S 
ATOM     21  O   LIG    1        5.859  -0.468  -2.192  0.00  0.00    -0.153 OA
ATOM     22  O   LIG    1        3.807   0.658  -1.597  0.00  0.00    -0.153 OA
BRANCH  20  23
ATOM     23  N   LIG    1        3.973  -0.407  -3.873  0.00  0.00    -0.177 NA
BRANCH  23  25
ATOM     24  C   LIG    1        1.589  -0.505  -3.656  0.00  0.00    +0.022 C 
ATOM     25  C   LIG    1        2.736   0.196  -4.395  0.00  0.00    +0.106 C 
ENDBRANCH  23  25
BRANCH  23  26
ATOM     26  C   LIG    1        4.766  -1.122  -4.886  0.00  0.00    +0.106 C 
ATOM     27  C   LIG    1        4.028  -2.435  -5.177  0.00  0.00    +0.022 C 
ENDBRANCH  23  26
ENDBRANCH  20  23
ENDBRANCH   1  20
TORSDOF 7
