REMARK  Name = ZINC000049403411
REMARK                            x       y       z     vdW  Elec       q    Type
REMARK                         _______ _______ _______ _____ _____    ______ ____
ROOT
ATOM      1  N   LIG    1        3.513  -4.177  -5.040  0.00  0.00    -0.254 N 
ATOM      2  C   LIG    1        4.526  -4.475  -5.908  0.00  0.00    +0.310 C 
ATOM      3  O   LIG    1        5.716  -4.204  -5.780  0.00  0.00    -0.252 OA
ATOM      4  N   LIG    1        4.029  -5.209  -6.934  0.00  0.00    -0.275 N 
ATOM      5  C   LIG    1        2.666  -5.648  -6.663  0.00  0.00    +0.129 C 
ATOM      6  C   LIG    1        2.239  -4.710  -5.514  0.00  0.00    +0.134 C 
ENDROOT
BRANCH   1  10
ATOM      7  C   LIG    1        3.873  -1.819  -1.565  0.00  0.00    -0.045 A 
ATOM      8  C   LIG    1        3.066  -2.962  -1.570  0.00  0.00    +0.006 A 
ATOM      9  C   LIG    1        2.954  -3.746  -2.713  0.00  0.00    +0.024 A 
ATOM     10  C   LIG    1        3.652  -3.388  -3.868  0.00  0.00    +0.038 A 
ATOM     11  C   LIG    1        4.464  -2.254  -3.874  0.00  0.00    +0.024 A 
ATOM     12  C   LIG    1        4.570  -1.476  -2.726  0.00  0.00    +0.006 A 
BRANCH   7  14
ATOM     13  C   LIG    1        2.633  -0.401   0.067  0.00  0.00    +0.012 C 
ATOM     14  C   LIG    1        4.014  -0.942  -0.326  0.00  0.00    +0.013 C 
ATOM     15  C   LIG    1        4.635  -1.772   0.804  0.00  0.00    +0.012 C 
ENDBRANCH   7  14
ENDBRANCH   1  10
BRANCH   4  16
ATOM     16  C   LIG    1        4.949  -5.966  -7.820  0.00  0.00    +0.205 C 
BRANCH  16  17
ATOM     17  C   LIG    1        5.397  -7.231  -7.094  0.00  0.00    +0.235 C 
ATOM     18  N   LIG    1        6.179  -7.071  -5.978  0.00  0.00    -0.282 N 
ATOM     19  H   LIG    1        6.299  -6.083  -5.666  0.00  0.00    +0.155 HD
ATOM     20  O   LIG    1        5.027  -8.336  -7.440  0.00  0.00    -0.274 OA
BRANCH  18  21
ATOM     21  C   LIG    1        6.687  -8.065  -5.097  0.00  0.00    +0.062 A 
ATOM     22  C   LIG    1        6.936  -7.665  -3.744  0.00  0.00    +0.121 A 
ATOM     23  N   LIG    1        6.741  -6.475  -3.218  0.00  0.00    -0.189 NA
ATOM     24  S   LIG    1        7.174  -6.568  -1.652  0.00  0.00    +0.117 S 
ATOM     25  N   LIG    1        7.622  -8.137  -1.625  0.00  0.00    -0.191 NA
ATOM     26  C   LIG    1        7.439  -8.610  -2.836  0.00  0.00    +0.102 A 
ATOM     27  C   LIG    1        7.703  -9.943  -3.265  0.00  0.00    +0.031 A 
ATOM     28  C   LIG    1        7.466 -10.302  -4.569  0.00  0.00    +0.004 A 
ATOM     29  C   LIG    1        6.955  -9.356  -5.502  0.00  0.00    +0.025 A 
ENDBRANCH  18  21
ENDBRANCH  16  17
ENDBRANCH   4  16
TORSDOF 5
