REMARK  Name = ZINC000049404946
REMARK                            x       y       z     vdW  Elec       q    Type
REMARK                         _______ _______ _______ _____ _____    ______ ____
ROOT
ATOM      1  N   LIG    1        4.644  -2.085   0.243  0.00  0.00    -0.199 N 
ENDROOT
BRANCH   1   5
ATOM      2  C   LIG    1        1.227   1.291   1.334  0.00  0.00    +0.044 C 
ATOM      3  C   LIG    1        2.615   0.935   0.847  0.00  0.00    -0.048 A 
ATOM      4  C   LIG    1        3.018  -0.395   0.792  0.00  0.00    +0.028 A 
ATOM      5  C   LIG    1        4.302  -0.719   0.350  0.00  0.00    +0.052 A 
ATOM      6  C   LIG    1        5.196   0.296  -0.012  0.00  0.00    +0.028 A 
ATOM      7  C   LIG    1        4.793   1.626   0.042  0.00  0.00    -0.048 A 
ATOM      8  C   LIG    1        5.758   2.725  -0.344  0.00  0.00    +0.044 C 
ATOM      9  C   LIG    1        3.505   1.941   0.474  0.00  0.00    +0.006 A 
ENDBRANCH   1   5
BRANCH   1  10
ATOM     10  S   LIG    1        3.807  -2.853  -0.995  0.00  0.00    +0.079 S 
ATOM     11  O   LIG    1        2.518  -3.205  -0.511  0.00  0.00    -0.150 OA
ATOM     12  O   LIG    1        4.592  -3.922  -1.503  0.00  0.00    -0.150 OA
BRANCH  10  13
ATOM     13  C   LIG    1        3.601  -1.616  -2.294  0.00  0.00    +0.153 A 
ATOM     14  C   LIG    1        4.753  -1.114  -2.975  0.00  0.00    +0.188 A 
ATOM     15  N   LIG    1        6.040  -1.371  -2.868  0.00  0.00    -0.128 NA
ATOM     16  N   LIG    1        6.691  -0.563  -3.751  0.00  0.00    -0.137 NA
ATOM     17  C   LIG    1        5.799   0.151  -4.370  0.00  0.00    +0.229 A 
ATOM     18  N   LIG    1        4.588  -0.162  -3.919  0.00  0.00    -0.287 N 
ATOM     19  C   LIG    1        3.343   0.352  -4.290  0.00  0.00    +0.094 A 
ATOM     20  C   LIG    1        2.236  -0.129  -3.653  0.00  0.00    +0.020 A 
ATOM     21  C   LIG    1        2.365  -1.126  -2.637  0.00  0.00    +0.034 A 
ENDBRANCH  10  13
ENDBRANCH   1  10
BRANCH   1  22
ATOM     22  C   LIG    1        6.052  -2.523   0.296  0.00  0.00    +0.166 C 
BRANCH  22  23
ATOM     23  C   LIG    1        6.650  -1.996   1.594  0.00  0.00    -0.028 A 
ATOM     24  C   LIG    1        7.851  -1.285   1.572  0.00  0.00    +0.005 A 
ATOM     25  C   LIG    1        8.410  -0.811   2.755  0.00  0.00    +0.000 A 
ATOM     26  C   LIG    1        7.776  -1.047   3.970  0.00  0.00    +0.000 A 
ATOM     27  C   LIG    1        6.582  -1.760   4.001  0.00  0.00    +0.000 A 
ATOM     28  C   LIG    1        6.023  -2.234   2.818  0.00  0.00    +0.005 A 
ENDBRANCH  22  23
ENDBRANCH   1  22
TORSDOF 5
