REMARK  Name = ZINC000006087397
REMARK                            x       y       z     vdW  Elec       q    Type
REMARK                         _______ _______ _______ _____ _____    ______ ____
ROOT
ATOM      1  C   LIG    1        3.662  -0.105  -2.734  0.00  0.00    +0.214 C 
ENDROOT
BRANCH   1   7
ATOM      2  C   LIG    1        8.013  -1.544  -4.292  0.00  0.00    +0.010 C 
ATOM      3  C   LIG    1        7.446  -1.080  -5.652  0.00  0.00    +0.018 C 
ATOM      4  C   LIG    1        6.231  -0.111  -5.480  0.00  0.00    +0.115 C 
ATOM      5  C   LIG    1        5.095  -0.754  -4.692  0.00  0.00    +0.247 C 
ATOM      6  O   LIG    1        4.498  -1.796  -4.896  0.00  0.00    -0.273 OA
ATOM      7  N   LIG    1        4.807   0.058  -3.638  0.00  0.00    -0.215 N 
ATOM      8  C   LIG    1        5.658   1.132  -3.620  0.00  0.00    +0.310 C 
ATOM      9  O   LIG    1        5.637   2.041  -2.811  0.00  0.00    -0.252 OA
ATOM     10  N   LIG    1        6.543   1.032  -4.632  0.00  0.00    -0.285 N 
ATOM     11  H   LIG    1        7.075   1.857  -4.928  0.00  0.00    +0.151 HD
ATOM     12  C   LIG    1        5.701   0.377  -6.852  0.00  0.00    +0.035 C 
ATOM     13  C   LIG    1        6.842   1.053  -7.637  0.00  0.00    +0.003 C 
ATOM     14  C   LIG    1        8.037   0.107  -7.815  0.00  0.00    +0.000 C 
ATOM     15  C   LIG    1        8.559  -0.379  -6.457  0.00  0.00    +0.006 C 
ENDBRANCH   1   7
BRANCH   1  16
ATOM     16  C   LIG    1        2.394   0.121  -3.564  0.00  0.00    +0.238 C 
ATOM     17  N   LIG    1        1.461  -0.897  -3.804  0.00  0.00    -0.267 N 
ATOM     18  O   LIG    1        2.199   1.217  -4.060  0.00  0.00    -0.274 OA
BRANCH  17  19
ATOM     19  C   LIG    1        0.244  -0.670  -4.524  0.00  0.00    +0.010 C 
ATOM     20  C   LIG    1       -0.620   0.488  -4.044  0.00  0.00    +0.051 C 
ATOM     21  C   LIG    1       -2.065   0.229  -4.522  0.00  0.00    +0.006 C 
ATOM     22  C   LIG    1       -2.012   0.031  -6.050  0.00  0.00    +0.004 C 
ATOM     23  C   LIG    1       -1.381  -1.349  -6.337  0.00  0.00    +0.029 C 
ATOM     24  C   LIG    1       -0.083  -1.470  -5.558  0.00  0.00    -0.008 C 
ENDBRANCH  17  19
BRANCH  17  25
ATOM     25  C   LIG    1        1.669  -2.266  -3.289  0.00  0.00    +0.187 C 
BRANCH  25  26
ATOM     26  C   LIG    1        1.272  -2.216  -1.826  0.00  0.00    +0.122 A 
ATOM     27  O   LIG    1        2.202  -2.376  -0.845  0.00  0.00    -0.466 OA
ATOM     28  C   LIG    1        1.558  -2.278   0.345  0.00  0.00    +0.195 A 
ATOM     29  C   LIG    1        0.242  -2.058   0.129  0.00  0.00    +0.041 A 
ATOM     30  C   LIG    1        0.060  -2.018  -1.257  0.00  0.00    +0.046 A 
ENDBRANCH  25  26
ENDBRANCH  17  25
ENDBRANCH   1  16
TORSDOF 5
