REMARK  Name = ZINC000009114470
REMARK                            x       y       z     vdW  Elec       q    Type
REMARK                         _______ _______ _______ _____ _____    ______ ____
ROOT
ATOM      1  C   LIG    1        6.451   5.877   2.620  0.00  0.00    +0.245 C 
ATOM      2  N   LIG    1        5.899   7.013   2.101  0.00  0.00    -0.305 N 
ATOM      3  H   LIG    1        5.103   6.927   1.462  0.00  0.00    +0.150 HD
ATOM      4  O   LIG    1        7.251   6.007   3.539  0.00  0.00    -0.270 OA
ENDROOT
BRANCH   1   8
ATOM      5  C   LIG    1        5.297   2.058   1.079  0.00  0.00    -0.030 A 
ATOM      6  C   LIG    1        5.833   2.175   2.361  0.00  0.00    +0.006 A 
ATOM      7  C   LIG    1        6.209   3.419   2.853  0.00  0.00    +0.013 A 
ATOM      8  C   LIG    1        6.055   4.574   2.076  0.00  0.00    +0.037 A 
ATOM      9  C   LIG    1        5.524   4.445   0.783  0.00  0.00    +0.013 A 
ATOM     10  C   LIG    1        5.149   3.200   0.292  0.00  0.00    +0.006 A 
BRANCH   5  11
ATOM     11  C   LIG    1        4.909   0.700   0.537  0.00  0.00    +0.139 C 
BRANCH  11  14
ATOM     12  C   LIG    1        7.596  -1.425  -1.093  0.00  0.00    +0.109 C 
ATOM     13  C   LIG    1        6.238  -0.998  -0.578  0.00  0.00    +0.210 C 
ATOM     14  N   LIG    1        6.156   0.197  -0.008  0.00  0.00    -0.311 N 
ATOM     15  H   LIG    1        6.974   0.775   0.071  0.00  0.00    +0.149 HD
ATOM     16  O   LIG    1        5.268  -1.733  -0.688  0.00  0.00    -0.276 OA
ENDBRANCH  11  14
ENDBRANCH   5  11
ENDBRANCH   1   8
BRANCH   2  17
ATOM     17  C   LIG    1        6.138   8.331   2.652  0.00  0.00    +0.100 C 
ATOM     18  C   LIG    1        7.389   8.898   1.968  0.00  0.00    +0.033 C 
BRANCH  17  19
ATOM     19  C   LIG    1        4.929   9.176   2.272  0.00  0.00    -0.027 A 
ATOM     20  C   LIG    1        4.169   9.768   3.283  0.00  0.00    +0.006 A 
ATOM     21  C   LIG    1        3.053  10.538   2.969  0.00  0.00    +0.015 A 
ATOM     22  C   LIG    1        2.682  10.724   1.641  0.00  0.00    +0.018 A 
ATOM     23 BR   LIG    1        1.163  11.769   1.214  0.00  0.00    -0.050 Br
ATOM     24  C   LIG    1        3.433  10.137   0.626  0.00  0.00    +0.015 A 
ATOM     25  C   LIG    1        4.549   9.366   0.939  0.00  0.00    +0.006 A 
ENDBRANCH  17  19
ENDBRANCH   2  17
TORSDOF 5
