REMARK  Name = ZINC000193545175
REMARK                            x       y       z     vdW  Elec       q    Type
REMARK                         _______ _______ _______ _____ _____    ______ ____
ROOT
ATOM      1  C   LIG    1        5.224   1.247  -4.230  0.00  0.00    +0.171 A 
ATOM      2  N   LIG    1        4.788   0.039  -4.706  0.00  0.00    -0.204 NA
ATOM      3  C   LIG    1        5.420  -0.218  -5.797  0.00  0.00    +0.185 A 
ATOM      4  S   LIG    1        6.546   0.987  -6.263  0.00  0.00    +0.050 S 
ATOM      5  N   LIG    1        6.141   1.863  -4.932  0.00  0.00    -0.187 NA
ENDROOT
BRANCH   1   8
ATOM      6  C   LIG    1        3.186   1.713  -1.084  0.00  0.00    +0.121 A 
ATOM      7  C   LIG    1        3.687   1.159  -2.260  0.00  0.00    +0.057 A 
ATOM      8  C   LIG    1        4.687   1.823  -2.989  0.00  0.00    +0.023 A 
ATOM      9  C   LIG    1        5.157   3.054  -2.493  0.00  0.00    +0.012 A 
ATOM     10  C   LIG    1        4.650   3.599  -1.317  0.00  0.00    +0.004 A 
ATOM     11  C   LIG    1        3.661   2.929  -0.607  0.00  0.00    +0.045 A 
BRANCH   6  13
ATOM     12  C   LIG    1        1.580  -0.168  -0.685  0.00  0.00    +0.277 C 
ATOM     13  O   LIG    1        2.206   1.090  -0.344  0.00  0.00    -0.495 OA
ENDBRANCH   6  13
ENDBRANCH   1   8
BRANCH   3  14
ATOM     14  N   LIG    1        5.138  -1.409  -6.467  0.00  0.00    -0.259 N 
ATOM     15  H   LIG    1        4.446  -2.004  -6.004  0.00  0.00    +0.157 HD
ATOM     16  C   LIG    1        5.650  -1.865  -7.652  0.00  0.00    +0.254 C 
ATOM     17  O   LIG    1        6.461  -1.161  -8.234  0.00  0.00    -0.270 OA
BRANCH  16  18
ATOM     18  C   LIG    1        5.212  -3.149  -8.180  0.00  0.00    +0.089 A 
ATOM     19  C   LIG    1        4.374  -4.087  -7.638  0.00  0.00    +0.182 A 
ATOM     20 BR   LIG    1        3.418  -4.187  -6.011  0.00  0.00    -0.008 Br
ATOM     21  O   LIG    1        4.249  -5.130  -8.485  0.00  0.00    -0.456 OA
ATOM     22  C   LIG    1        5.008  -4.871  -9.576  0.00  0.00    +0.197 A 
ATOM     23  C   LIG    1        5.610  -3.673  -9.425  0.00  0.00    +0.055 A 
ENDBRANCH  16  18
ENDBRANCH   3  14
TORSDOF 4
