REMARK  Name = ZINC000049421961
REMARK                            x       y       z     vdW  Elec       q    Type
REMARK                         _______ _______ _______ _____ _____    ______ ____
ROOT
ATOM      1  C   LIG    1       10.474   0.507  -2.990  0.00  0.00    +0.143 A 
ATOM      2  N   LIG    1       11.110  -0.306  -3.912  0.00  0.00    -0.231 NA
ATOM      3  C   LIG    1       12.055   0.422  -4.422  0.00  0.00    +0.200 A 
ATOM      4  N   LIG    1       12.069   1.670  -3.883  0.00  0.00    -0.332 N 
ATOM      5  C   LIG    1       11.077   1.731  -2.986  0.00  0.00    +0.120 A 
ENDROOT
BRANCH   1   8
ATOM      6  N   LIG    1        8.924  -1.205  -2.329  0.00  0.00    -0.280 N 
ATOM      7  H   LIG    1        9.517  -1.716  -2.999  0.00  0.00    +0.155 HD
ATOM      8  C   LIG    1        9.344   0.094  -2.156  0.00  0.00    +0.268 C 
ATOM      9  O   LIG    1        8.787   0.812  -1.328  0.00  0.00    -0.268 OA
BRANCH   6  13
ATOM     10  C   LIG    1        5.943  -3.420  -0.398  0.00  0.00    +0.121 A 
ATOM     11  C   LIG    1        7.086  -4.052  -0.894  0.00  0.00    +0.047 A 
ATOM     12  C   LIG    1        8.066  -3.295  -1.529  0.00  0.00    +0.027 A 
ATOM     13  C   LIG    1        7.898  -1.914  -1.660  0.00  0.00    +0.034 A 
ATOM     14  C   LIG    1        6.748  -1.285  -1.171  0.00  0.00    +0.027 A 
ATOM     15  C   LIG    1        5.771  -2.044  -0.535  0.00  0.00    +0.047 A 
BRANCH  10  16
ATOM     16  O   LIG    1        4.940  -4.118   0.244  0.00  0.00    -0.492 OA
BRANCH  16  18
ATOM     17  C   LIG    1        3.658  -5.819   1.244  0.00  0.00    +0.048 C 
ATOM     18  C   LIG    1        4.967  -5.534   0.512  0.00  0.00    +0.225 C 
ENDBRANCH  16  18
ENDBRANCH  10  16
ENDBRANCH   6  13
ENDBRANCH   1   8
BRANCH   4  19
ATOM     19  C   LIG    1       12.987   2.755  -4.228  0.00  0.00    +0.157 C 
BRANCH  19  20
ATOM     20  C   LIG    1       14.393   2.206  -4.059  0.00  0.00    -0.028 A 
ATOM     21  C   LIG    1       14.861   1.844  -2.793  0.00  0.00    +0.007 A 
ATOM     22  C   LIG    1       16.142   1.324  -2.637  0.00  0.00    +0.023 A 
ATOM     23  C   LIG    1       16.961   1.163  -3.754  0.00  0.00    +0.033 A 
ATOM     24  C   LIG    1       16.510   1.536  -5.022  0.00  0.00    +0.023 A 
ATOM     25  C   LIG    1       15.227   2.052  -5.169  0.00  0.00    +0.007 A 
BRANCH  23  26
ATOM     26  N   LIG    1       18.257   0.638  -3.533  0.00  0.00    -0.286 N 
ATOM     27  H   LIG    1       18.661   0.789  -2.603  0.00  0.00    +0.155 HD
ATOM     28  C   LIG    1       19.016  -0.108  -4.394  0.00  0.00    +0.214 C 
ATOM     29  O   LIG    1       18.612  -0.427  -5.489  0.00  0.00    -0.276 OA
ATOM     30  C   LIG    1       20.369  -0.526  -3.888  0.00  0.00    +0.109 C 
ENDBRANCH  23  26
ENDBRANCH  19  20
ENDBRANCH   4  19
TORSDOF 7
