REMARK  Name = ZINC000022624471
REMARK                            x       y       z     vdW  Elec       q    Type
REMARK                         _______ _______ _______ _____ _____    ______ ____
ROOT
ATOM      1  C   LIG    1        5.746   5.320  -4.500  0.00  0.00    +0.121 A 
ATOM      2  N   LIG    1        5.045   5.016  -5.601  0.00  0.00    -0.238 NA
ATOM      3  C   LIG    1        4.745   5.992  -6.460  0.00  0.00    +0.136 A 
ATOM      4  C   LIG    1        5.144   7.316  -6.251  0.00  0.00    +0.052 A 
ATOM      5  C   LIG    1        5.890   7.642  -5.119  0.00  0.00    +0.028 A 
ATOM      6  C   LIG    1        6.193   6.622  -4.234  0.00  0.00    +0.045 A 
ENDROOT
BRANCH   1  11
ATOM      7  C   LIG    1        5.293   1.281  -1.016  0.00  0.00    +0.216 C 
ATOM      8  N   LIG    1        6.000   2.162  -1.755  0.00  0.00    -0.298 N 
ATOM      9  C   LIG    1        6.237   3.549  -1.274  0.00  0.00    +0.126 C 
ATOM     10  C   LIG    1        5.482   4.499  -2.232  0.00  0.00    +0.125 C 
ATOM     11  N   LIG    1        6.033   4.288  -3.601  0.00  0.00    -0.312 N 
ATOM     12  C   LIG    1        5.782   2.898  -4.078  0.00  0.00    +0.125 C 
ATOM     13  C   LIG    1        6.527   1.929  -3.128  0.00  0.00    +0.126 C 
ATOM     14  O   LIG    1        4.813   1.623   0.059  0.00  0.00    -0.276 OA
BRANCH   7  15
ATOM     15  C   LIG    1        5.096  -0.149  -1.554  0.00  0.00    +0.102 C 
BRANCH  15  17
ATOM     16  C   LIG    1        5.170  -1.443   0.657  0.00  0.00    +0.011 C 
ATOM     17  C   LIG    1        4.398  -1.200  -0.652  0.00  0.00    -0.029 C 
ATOM     18  C   LIG    1        2.935  -0.838  -0.344  0.00  0.00    +0.011 C 
ATOM     19  C   LIG    1        4.380  -2.533  -1.423  0.00  0.00    +0.011 C 
ENDBRANCH  15  17
ENDBRANCH   7  15
ENDBRANCH   1  11
BRANCH   4  20
ATOM     20  N   LIG    1        4.805   8.299  -7.228  0.00  0.00    -0.280 N 
ATOM     21  H   LIG    1        4.762   7.994  -8.211  0.00  0.00    +0.155 HD
ATOM     22  C   LIG    1        4.441   9.611  -7.000  0.00  0.00    +0.251 C 
ATOM     23  O   LIG    1        4.349   9.979  -5.835  0.00  0.00    -0.270 OA
BRANCH  22  24
ATOM     24  C   LIG    1        4.177  10.516  -8.127  0.00  0.00    +0.072 A 
ATOM     25  C   LIG    1        4.028  10.094  -9.460  0.00  0.00    +0.135 A 
ATOM     26  F   LIG    1        4.108   8.773  -9.805  0.00  0.00    -0.205 F 
ATOM     27  C   LIG    1        3.784  10.979 -10.503  0.00  0.00    +0.039 A 
ATOM     28  C   LIG    1        3.677  12.338 -10.228  0.00  0.00    +0.003 A 
ATOM     29  C   LIG    1        3.814  12.793  -8.918  0.00  0.00    +0.001 A 
ATOM     30  C   LIG    1        4.059  11.895  -7.881  0.00  0.00    +0.016 A 
ENDBRANCH  22  24
ENDBRANCH   4  20
TORSDOF 5
