REMARK  Name = ZINC000049406744
REMARK                            x       y       z     vdW  Elec       q    Type
REMARK                         _______ _______ _______ _____ _____    ______ ____
ROOT
ATOM      1  C   LIG    1        6.519  -0.082  -3.738  0.00  0.00    +0.076 C 
ATOM      2  C   LIG    1        6.977   1.281  -4.280  0.00  0.00    +0.041 C 
ATOM      3  C   LIG    1        6.471   1.470  -5.725  0.00  0.00    +0.110 C 
ATOM      4  N   LIG    1        6.963   0.307  -6.487  0.00  0.00    -0.296 N 
ATOM      5  C   LIG    1        7.485   0.483  -7.755  0.00  0.00    +0.264 C 
ATOM      6  O   LIG    1        7.250   1.543  -8.328  0.00  0.00    -0.268 OA
ATOM      7  C   LIG    1        6.419  -0.996  -6.063  0.00  0.00    +0.110 C 
ATOM      8  C   LIG    1        6.973  -1.233  -4.649  0.00  0.00    +0.041 C 
ENDROOT
BRANCH   5   9
ATOM      9  C   LIG    1        8.272  -0.551  -8.389  0.00  0.00    +0.121 A 
ATOM     10  N   LIG    1        8.492  -0.491  -9.720  0.00  0.00    -0.272 N 
ATOM     11  H   LIG    1        8.129   0.266 -10.335  0.00  0.00    +0.189 HD
ATOM     12  N   LIG    1        9.242  -1.516 -10.170  0.00  0.00    -0.173 NA
ATOM     13  C   LIG    1        9.525  -2.245  -9.100  0.00  0.00    +0.093 A 
ATOM     14  C   LIG    1        8.942  -1.661  -7.976  0.00  0.00    +0.062 A 
BRANCH  13  15
ATOM     15  C   LIG    1       10.335  -3.468  -9.136  0.00  0.00    +0.002 A 
ATOM     16  C   LIG    1       10.468  -4.296  -8.010  0.00  0.00    +0.010 A 
ATOM     17  C   LIG    1       11.241  -5.451  -8.057  0.00  0.00    +0.001 A 
ATOM     18  C   LIG    1       11.897  -5.806  -9.231  0.00  0.00    +0.000 A 
ATOM     19  C   LIG    1       11.777  -5.001 -10.358  0.00  0.00    +0.001 A 
ATOM     20  C   LIG    1       11.004  -3.846 -10.311  0.00  0.00    +0.010 A 
ENDBRANCH  13  15
ENDBRANCH   5   9
BRANCH   1  22
ATOM     21  C   LIG    1        4.446  -0.812  -2.632  0.00  0.00    +0.216 C 
ATOM     22  N   LIG    1        5.074  -0.104  -3.573  0.00  0.00    -0.312 N 
ATOM     23  H   LIG    1        4.518   0.450  -4.196  0.00  0.00    +0.149 HD
ATOM     24  O   LIG    1        5.076  -1.503  -1.838  0.00  0.00    -0.276 OA
BRANCH  21  29
ATOM     25  C   LIG    1        0.143  -3.346  -2.958  0.00  0.00    +0.007 C 
ATOM     26  C   LIG    1        1.676  -3.468  -2.945  0.00  0.00    -0.014 C 
ATOM     27  C   LIG    1        2.269  -3.002  -1.603  0.00  0.00    +0.004 C 
ATOM     28  C   LIG    1        2.249  -1.472  -1.422  0.00  0.00    +0.013 C 
ATOM     29  C   LIG    1        2.906  -0.714  -2.600  0.00  0.00    +0.075 C 
ATOM     30  C   LIG    1        2.252  -1.172  -3.925  0.00  0.00    +0.013 C 
ATOM     31  C   LIG    1        2.326  -2.697  -4.109  0.00  0.00    +0.004 C 
ENDBRANCH  21  29
ENDBRANCH   1  22
TORSDOF 4
