REMARK  Name = ZINC000000538650
REMARK                            x       y       z     vdW  Elec       q    Type
REMARK                         _______ _______ _______ _____ _____    ______ ____
ROOT
ATOM      1  C   LIG    1        7.172  -1.891   0.730  0.00  0.00    +0.076 A 
ATOM      2  N   LIG    1        6.812  -3.178   1.175  0.00  0.00    -0.213 N 
ATOM      3  N   LIG    1        5.764  -3.516   1.985  0.00  0.00    -0.172 NA
ATOM      4  C   LIG    1        5.839  -4.815   2.101  0.00  0.00    +0.148 A 
ATOM      5  C   LIG    1        6.916  -5.353   1.400  0.00  0.00    +0.087 A 
ATOM      6  C   LIG    1        7.540  -4.288   0.794  0.00  0.00    +0.167 A 
ATOM      7  N   LIG    1        8.633  -4.188  -0.057  0.00  0.00    -0.235 NA
ATOM      8  C   LIG    1        8.978  -3.013  -0.483  0.00  0.00    +0.115 A 
ATOM      9  C   LIG    1        8.269  -1.840  -0.102  0.00  0.00    +0.048 A 
ENDROOT
BRANCH   1  12
ATOM     10  C   LIG    1        4.290   0.422   1.477  0.00  0.00    +0.037 A 
ATOM     11  C   LIG    1        4.997  -0.716   1.089  0.00  0.00    +0.033 A 
ATOM     12  C   LIG    1        6.395  -0.737   1.168  0.00  0.00    +0.002 A 
ATOM     13  C   LIG    1        7.060   0.401   1.652  0.00  0.00    +0.010 A 
ATOM     14  C   LIG    1        6.348   1.531   2.044  0.00  0.00    +0.002 A 
ATOM     15  C   LIG    1        4.961   1.549   1.956  0.00  0.00    +0.023 A 
BRANCH  10  18
ATOM     16  C   LIG    1        0.549   0.694   2.276  0.00  0.00    +0.109 C 
ATOM     17  C   LIG    1        2.050   0.742   2.438  0.00  0.00    +0.216 C 
ATOM     18  N   LIG    1        2.871   0.435   1.357  0.00  0.00    -0.275 N 
ATOM     19  C   LIG    1        2.302   0.057   0.050  0.00  0.00    +0.138 C 
ATOM     20  O   LIG    1        2.537   1.045   3.507  0.00  0.00    -0.276 OA
ENDBRANCH  10  18
ENDBRANCH   1  12
BRANCH   5  21
ATOM     21  C   LIG    1        7.225  -6.763   1.336  0.00  0.00    +0.205 C 
ATOM     22  O   LIG    1        6.297  -7.558   1.485  0.00  0.00    -0.286 OA
BRANCH  21  23
ATOM     23  C   LIG    1        8.569  -7.291   1.148  0.00  0.00    +0.060 A 
ATOM     24  S   LIG    1        8.816  -8.920   0.591  0.00  0.00    -0.093 S 
ATOM     25  C   LIG    1       10.527  -8.740   0.672  0.00  0.00    +0.046 A 
ATOM     26  C   LIG    1       10.886  -7.495   1.110  0.00  0.00    +0.008 A 
ATOM     27  C   LIG    1        9.784  -6.677   1.383  0.00  0.00    +0.019 A 
ENDBRANCH  21  23
ENDBRANCH   5  21
TORSDOF 4
