REMARK  Name = ZINC000009070396
REMARK                            x       y       z     vdW  Elec       q    Type
REMARK                         _______ _______ _______ _____ _____    ______ ____
ROOT
ATOM      1  O   LIG    1        0.309   3.146  -3.827  0.00  0.00    -0.270 OA
ATOM      2  C   LIG    1        0.591   1.974  -4.045  0.00  0.00    +0.244 C 
ATOM      3  N   LIG    1        1.908   1.683  -4.274  0.00  0.00    -0.308 N 
ATOM      4  H   LIG    1        2.178   0.694  -4.358  0.00  0.00    +0.149 HD
ENDROOT
BRANCH   2   5
ATOM      5  C   LIG    1       -0.403   0.895  -4.065  0.00  0.00    +0.037 A 
ATOM      6  C   LIG    1       -1.744   1.187  -4.344  0.00  0.00    +0.013 A 
ATOM      7  C   LIG    1       -2.701   0.179  -4.374  0.00  0.00    +0.013 A 
ATOM      8  C   LIG    1       -2.349  -1.151  -4.122  0.00  0.00    +0.055 A 
ATOM      9  C   LIG    1       -1.010  -1.445  -3.831  0.00  0.00    +0.013 A 
ATOM     10  C   LIG    1       -0.052  -0.437  -3.801  0.00  0.00    +0.013 A 
BRANCH   8  11
ATOM     11  C   LIG    1       -3.431  -2.241  -4.160  0.00  0.00    +0.417 C 
ATOM     12  F   LIG    1       -4.058  -2.208  -5.348  0.00  0.00    -0.166 F 
ATOM     13  F   LIG    1       -4.327  -2.015  -3.186  0.00  0.00    -0.166 F 
ATOM     14  F   LIG    1       -2.896  -3.465  -3.986  0.00  0.00    -0.166 F 
ENDBRANCH   8  11
ENDBRANCH   2   5
BRANCH   3  15
ATOM     15  C   LIG    1        2.982   2.661  -4.056  0.00  0.00    +0.150 C 
BRANCH  15  16
ATOM     16  C   LIG    1        3.282   2.646  -2.544  0.00  0.00    +0.213 C 
ATOM     17  O   LIG    1        3.832   1.345  -2.216  0.00  0.00    -0.444 OA
ATOM     18  C   LIG    1        5.163   1.432  -2.129  0.00  0.00    +0.408 C 
ATOM     19  O   LIG    1        5.887   0.462  -1.982  0.00  0.00    -0.226 OA
ATOM     20  N   LIG    1        5.566   2.740  -2.238  0.00  0.00    -0.234 N 
ATOM     21  C   LIG    1        4.420   3.634  -2.248  0.00  0.00    +0.163 C 
BRANCH  20  22
ATOM     22  C   LIG    1        6.914   3.188  -2.264  0.00  0.00    +0.040 A 
ATOM     23  C   LIG    1        7.245   4.393  -1.627  0.00  0.00    +0.026 A 
ATOM     24  C   LIG    1        8.559   4.851  -1.666  0.00  0.00    +0.040 A 
ATOM     25  C   LIG    1        9.514   4.097  -2.339  0.00  0.00    +0.124 A 
ATOM     26  F   LIG    1       10.785   4.543  -2.376  0.00  0.00    -0.205 F 
ATOM     27  C   LIG    1        9.204   2.900  -2.974  0.00  0.00    +0.040 A 
ATOM     28  C   LIG    1        7.891   2.441  -2.938  0.00  0.00    +0.026 A 
ENDBRANCH  20  22
ENDBRANCH  15  16
ENDBRANCH   3  15
TORSDOF 5
