REMARK  Name = ZINC000078751741
REMARK                            x       y       z     vdW  Elec       q    Type
REMARK                         _______ _______ _______ _____ _____    ______ ____
ROOT
ATOM      1  S   LIG    1        3.941  -2.255   0.150  0.00  0.00    +0.073 S 
ATOM      2  O   LIG    1        3.094  -3.164  -0.532  0.00  0.00    -0.150 OA
ATOM      3  O   LIG    1        3.855  -2.216   1.564  0.00  0.00    -0.150 OA
ENDROOT
BRANCH   1   6
ATOM      4  C   LIG    1        4.874   0.734   1.357  0.00  0.00    +0.053 C 
ATOM      5  C   LIG    1        4.082   0.568   0.077  0.00  0.00    +0.014 A 
ATOM      6  C   LIG    1        3.644  -0.604  -0.499  0.00  0.00    +0.119 A 
ATOM      7  C   LIG    1        2.924  -0.369  -1.684  0.00  0.00    +0.051 A 
ATOM      8  C   LIG    1        2.827   0.961  -2.024  0.00  0.00    +0.098 A 
ATOM      9  S   LIG    1        3.621   1.951  -0.845  0.00  0.00    -0.085 S 
BRANCH   8  10
ATOM     10  C   LIG    1        2.177   1.525  -3.190  0.00  0.00    +0.344 C 
ATOM     11  O   LIG    1        1.619   0.882  -4.055  0.00  0.00    -0.245 OA
BRANCH  10  12
ATOM     12  O   LIG    1        2.184   2.844  -3.341  0.00  0.00    -0.477 OA
ATOM     13  H   LIG    1        2.672   3.202  -2.581  0.00  0.00    +0.295 HD
ENDBRANCH  10  12
ENDBRANCH   8  10
ENDBRANCH   1   6
BRANCH   1  14
ATOM     14  N   LIG    1        5.507  -2.600  -0.255  0.00  0.00    -0.213 N 
ATOM     15  H   LIG    1        5.587  -3.522   0.192  0.00  0.00    +0.174 HD
BRANCH  14  16
ATOM     16  C   LIG    1        5.713  -2.718  -1.636  0.00  0.00    +0.084 A 
ATOM     17  C   LIG    1        5.758  -3.973  -2.249  0.00  0.00    +0.146 A 
ATOM     18  F   LIG    1        5.633  -5.087  -1.495  0.00  0.00    -0.204 F 
ATOM     19  C   LIG    1        5.929  -4.103  -3.618  0.00  0.00    +0.041 A 
ATOM     20  C   LIG    1        6.071  -2.953  -4.396  0.00  0.00    +0.015 A 
ATOM     21  C   LIG    1        6.050  -1.677  -3.803  0.00  0.00    +0.057 A 
ATOM     22  C   LIG    1        5.892  -1.572  -2.413  0.00  0.00    +0.039 A 
BRANCH  21  23
ATOM     23  C   LIG    1        6.223  -0.404  -4.646  0.00  0.00    +0.417 C 
ATOM     24  F   LIG    1        5.906  -0.634  -5.931  0.00  0.00    -0.166 F 
ATOM     25  F   LIG    1        7.499   0.000  -4.573  0.00  0.00    -0.166 F 
ATOM     26  F   LIG    1        5.426   0.572  -4.167  0.00  0.00    -0.166 F 
ENDBRANCH  21  23
ENDBRANCH  14  16
ENDBRANCH   1  14
TORSDOF 6
