REMARK  Name = ZINC000006083203
REMARK                            x       y       z     vdW  Elec       q    Type
REMARK                         _______ _______ _______ _____ _____    ______ ____
ROOT
ATOM      1  O   LIG    1        1.241  -0.977  -2.945  0.00  0.00    -0.466 OA
ENDROOT
BRANCH   1   2
ATOM      2  C   LIG    1        0.748  -2.140  -3.434  0.00  0.00    +0.226 A 
ATOM      3  C   LIG    1        1.468  -2.811  -4.454  0.00  0.00    +0.063 A 
ATOM      4  C   LIG    1        2.679  -2.342  -5.020  0.00  0.00    +0.030 A 
ATOM      5  C   LIG    1        3.313  -3.073  -6.004  0.00  0.00    +0.019 A 
ATOM      6 BR   LIG    1        4.933  -2.455  -6.761  0.00  0.00    -0.050 Br
ATOM      7  C   LIG    1        2.755  -4.288  -6.452  0.00  0.00    +0.017 A 
ATOM      8  C   LIG    1        1.575  -4.753  -5.909  0.00  0.00    +0.029 A 
ATOM      9  C   LIG    1        0.917  -4.018  -4.903  0.00  0.00    +0.078 A 
ATOM     10  N   LIG    1       -0.255  -4.474  -4.360  0.00  0.00    -0.235 NA
ATOM     11  C   LIG    1       -0.845  -3.784  -3.430  0.00  0.00    +0.225 A 
ATOM     12  N   LIG    1       -0.362  -2.607  -2.941  0.00  0.00    -0.201 NA
ENDBRANCH   1   2
BRANCH   1  13
ATOM     13  C   LIG    1        0.570  -0.206  -1.888  0.00  0.00    +0.326 C 
BRANCH  13  16
ATOM     14  C   LIG    1        2.675  -1.247  -0.114  0.00  0.00    +0.132 C 
ATOM     15  N   LIG    1        2.565   0.209  -0.407  0.00  0.00    -0.299 N 
ATOM     16  C   LIG    1        1.623   0.698  -1.262  0.00  0.00    +0.253 C 
ATOM     17  O   LIG    1        1.598   1.896  -1.544  0.00  0.00    -0.272 OA
BRANCH  15  18
ATOM     18  C   LIG    1        3.496   1.208   0.228  0.00  0.00    +0.076 C 
ATOM     19  C   LIG    1        4.870   0.634   0.685  0.00  0.00    +0.022 C 
ATOM     20  C   LIG    1        4.808  -0.145   2.019  0.00  0.00    +0.002 C 
ATOM     21  C   LIG    1        4.080   0.630   3.119  0.00  0.00    +0.000 C 
ATOM     22  C   LIG    1        2.684   1.039   2.641  0.00  0.00    +0.002 C 
ATOM     23  C   LIG    1        2.785   1.937   1.398  0.00  0.00    +0.022 C 
ENDBRANCH  15  18
ENDBRANCH  13  16
ENDBRANCH   1  13
TORSDOF 4
