REMARK  Name = ZINC000160172743
REMARK                            x       y       z     vdW  Elec       q    Type
REMARK                         _______ _______ _______ _____ _____    ______ ____
ROOT
ATOM      1  C   LIG    1        3.569  -2.810  -0.736  0.00  0.00    +0.040 C 
ATOM      2  C   LIG    1        2.931  -4.179  -0.429  0.00  0.00    +0.029 C 
ATOM      3  C   LIG    1        3.157  -5.117  -1.622  0.00  0.00    +0.110 C 
ATOM      4  N   LIG    1        2.481  -4.459  -2.755  0.00  0.00    -0.286 N 
ATOM      5  C   LIG    1        1.684  -5.151  -3.635  0.00  0.00    +0.302 C 
ATOM      6  N   LIG    1        0.999  -6.189  -3.112  0.00  0.00    -0.295 N 
ATOM      7  H   LIG    1        0.913  -6.201  -2.093  0.00  0.00    +0.151 HD
ATOM      8  O   LIG    1        1.571  -4.847  -4.818  0.00  0.00    -0.253 OA
ATOM      9  C   LIG    1        3.152  -3.244  -3.236  0.00  0.00    +0.110 C 
ATOM     10  C   LIG    1        3.108  -2.214  -2.085  0.00  0.00    +0.029 C 
ENDROOT
BRANCH   1  13
ATOM     11  C   LIG    1        5.181  -2.535   1.867  0.00  0.00    +0.172 C 
ATOM     12  N   LIG    1        5.752  -2.792   0.557  0.00  0.00    -0.271 N 
ATOM     13  C   LIG    1        5.092  -2.909  -0.631  0.00  0.00    +0.042 A 
ATOM     14  C   LIG    1        6.075  -3.117  -1.541  0.00  0.00    +0.044 A 
ATOM     15  C   LIG    1        7.280  -3.119  -0.854  0.00  0.00    +0.134 A 
ATOM     16  N   LIG    1        7.092  -2.923   0.418  0.00  0.00    -0.180 NA
ENDBRANCH   1  13
BRANCH   6  17
ATOM     17  C   LIG    1       -0.058  -6.828  -3.867  0.00  0.00    +0.141 C 
BRANCH  17  18
ATOM     18  C   LIG    1       -0.632  -7.818  -2.876  0.00  0.00    -0.030 A 
ATOM     19  C   LIG    1       -1.660  -7.431  -2.020  0.00  0.00    +0.015 A 
ATOM     20  C   LIG    1       -2.196  -8.325  -1.084  0.00  0.00    +0.001 A 
ATOM     21  C   LIG    1       -1.667  -9.621  -1.017  0.00  0.00    +0.010 A 
ATOM     22  C   LIG    1       -0.638 -10.011  -1.867  0.00  0.00    +0.001 A 
ATOM     23  C   LIG    1       -0.121  -9.112  -2.795  0.00  0.00    +0.005 A 
BRANCH  20  24
ATOM     24  C   LIG    1       -3.285  -7.905  -0.201  0.00  0.00    +0.071 A 
ATOM     25  N   LIG    1       -3.240  -6.671   0.338  0.00  0.00    -0.255 NA
ATOM     26  C   LIG    1       -4.211  -6.253   1.143  0.00  0.00    +0.111 A 
ATOM     27  C   LIG    1       -5.300  -7.061   1.458  0.00  0.00    +0.020 A 
ATOM     28  C   LIG    1       -5.383  -8.336   0.918  0.00  0.00    +0.004 A 
ATOM     29  C   LIG    1       -4.362  -8.756   0.080  0.00  0.00    +0.028 A 
ENDBRANCH  20  24
ENDBRANCH  17  18
ENDBRANCH   6  17
TORSDOF 4
