REMARK  Name = ZINC000006084756
REMARK                            x       y       z     vdW  Elec       q    Type
REMARK                         _______ _______ _______ _____ _____    ______ ____
ROOT
ATOM      1  C   LIG    1        6.064  -4.065  -4.223  0.00  0.00    +0.125 C 
ENDROOT
BRANCH   1   2
ATOM      2  N   LIG    1        6.583  -2.832  -4.859  0.00  0.00    -0.336 N 
ATOM      3  H   LIG    1        6.232  -2.677  -5.817  0.00  0.00    +0.147 HD
BRANCH   2   4
ATOM      4  C   LIG    1        6.735  -1.660  -4.119  0.00  0.00    +0.079 C 
ATOM      5  S   LIG    1        7.031  -1.744  -2.465  0.00  0.00    -0.035 S 
BRANCH   4   6
ATOM      6  C   LIG    1        6.628  -0.408  -4.876  0.00  0.00    +0.003 A 
ATOM      7  C   LIG    1        7.425   0.693  -4.529  0.00  0.00    +0.012 A 
ATOM      8  C   LIG    1        7.337   1.888  -5.232  0.00  0.00    +0.024 A 
ATOM      9  C   LIG    1        6.444   1.999  -6.299  0.00  0.00    +0.033 A 
ATOM     10  C   LIG    1        5.630   0.919  -6.653  0.00  0.00    +0.024 A 
ATOM     11  C   LIG    1        5.726  -0.274  -5.947  0.00  0.00    +0.012 A 
BRANCH   9  12
ATOM     12  N   LIG    1        6.394   3.249  -6.962  0.00  0.00    -0.286 N 
ATOM     13  H   LIG    1        6.733   4.059  -6.433  0.00  0.00    +0.155 HD
ATOM     14  C   LIG    1        6.001   3.514  -8.248  0.00  0.00    +0.214 C 
ATOM     15  O   LIG    1        5.659   2.634  -9.005  0.00  0.00    -0.276 OA
ATOM     16  C   LIG    1        6.045   4.958  -8.665  0.00  0.00    +0.109 C 
ENDBRANCH   9  12
ENDBRANCH   4   6
ENDBRANCH   2   4
ENDBRANCH   1   2
BRANCH   1  17
ATOM     17  C   LIG    1        4.541  -3.864  -3.953  0.00  0.00    +0.104 C 
BRANCH  17  21
ATOM     18  C   LIG    1        2.479  -2.708  -7.573  0.00  0.00    +0.120 A 
ATOM     19  C   LIG    1        3.414  -3.734  -7.633  0.00  0.00    +0.046 A 
ATOM     20  C   LIG    1        4.074  -4.133  -6.476  0.00  0.00    +0.009 A 
ATOM     21  C   LIG    1        3.807  -3.506  -5.251  0.00  0.00    -0.029 A 
ATOM     22  C   LIG    1        2.846  -2.492  -5.206  0.00  0.00    +0.009 A 
ATOM     23  C   LIG    1        2.183  -2.087  -6.360  0.00  0.00    +0.046 A 
BRANCH  18  25
ATOM     24  C   LIG    1        0.973  -1.217  -8.902  0.00  0.00    +0.277 C 
ATOM     25  O   LIG    1        1.871  -2.341  -8.752  0.00  0.00    -0.495 OA
ENDBRANCH  18  25
ENDBRANCH  17  21
BRANCH  17  26
ATOM     26  N   LIG    1        3.898  -5.067  -3.348  0.00  0.00    -0.294 NA
ATOM     27  C   LIG    1        4.303  -5.323  -1.954  0.00  0.00    +0.085 C 
ATOM     28  C   LIG    1        4.566  -6.832  -1.932  0.00  0.00    +0.017 C 
ATOM     29  C   LIG    1        3.658  -7.343  -3.046  0.00  0.00    +0.017 C 
ATOM     30  C   LIG    1        3.919  -6.307  -4.133  0.00  0.00    +0.085 C 
ENDBRANCH  17  26
ENDBRANCH   1  17
TORSDOF 8
