REMARK  Name = ZINC000186872603
REMARK                            x       y       z     vdW  Elec       q    Type
REMARK                         _______ _______ _______ _____ _____    ______ ____
ROOT
ATOM      1  N   LIG    1        5.317  -2.214   0.021  0.00  0.00    -0.297 N 
ATOM      2  C   LIG    1        6.583  -2.290  -0.755  0.00  0.00    +0.123 C 
ATOM      3  C   LIG    1        6.661  -3.687  -1.422  0.00  0.00    +0.103 C 
ATOM      4  N   LIG    1        6.609  -4.765  -0.392  0.00  0.00    -0.299 NA
ATOM      5  C   LIG    1        5.318  -4.666   0.360  0.00  0.00    +0.103 C 
ATOM      6  C   LIG    1        5.158  -3.281   1.044  0.00  0.00    +0.123 C 
ENDROOT
BRANCH   1  10
ATOM      7  C   LIG    1        5.168   2.440  -1.015  0.00  0.00    +0.066 C 
ATOM      8  C   LIG    1        4.678   1.266  -0.203  0.00  0.00    +0.044 A 
ATOM      9  N   LIG    1        5.200   0.080  -0.436  0.00  0.00    -0.220 NA
ATOM     10  C   LIG    1        4.765  -0.966   0.277  0.00  0.00    +0.218 A 
ATOM     11  N   LIG    1        3.825  -0.874   1.225  0.00  0.00    -0.219 NA
ATOM     12  C   LIG    1        3.280   0.304   1.480  0.00  0.00    +0.049 A 
ATOM     13  C   LIG    1        3.697   1.416   0.764  0.00  0.00    +0.046 A 
BRANCH  12  14
ATOM     14  C   LIG    1        2.204   0.426   2.555  0.00  0.00    +0.032 C 
ATOM     15  C   LIG    1        2.794   0.008   3.911  0.00  0.00    +0.014 C 
ATOM     16  C   LIG    1        1.011  -0.468   2.181  0.00  0.00    +0.014 C 
ENDBRANCH  12  14
ENDBRANCH   1  10
BRANCH   4  17
ATOM     17  C   LIG    1        7.818  -4.797   0.458  0.00  0.00    +0.085 C 
BRANCH  17  18
ATOM     18  C   LIG    1        8.004  -6.281   0.823  0.00  0.00    +0.025 C 
BRANCH  18  19
ATOM     19  C   LIG    1        9.238  -6.410   1.737  0.00  0.00    +0.097 C 
BRANCH  19  20
ATOM     20  C   LIG    1       10.474  -6.074   0.930  0.00  0.00    +0.197 A 
ATOM     21  O   LIG    1       10.916  -6.963   0.000  0.00  0.00    -0.440 OA
ATOM     22  C   LIG    1       11.995  -6.386  -0.537  0.00  0.00    +0.155 A 
ATOM     23  C   LIG    1       12.841  -6.853  -1.541  0.00  0.00    +0.048 A 
ATOM     24  C   LIG    1       13.905  -6.039  -1.917  0.00  0.00    +0.004 A 
ATOM     25  C   LIG    1       14.103  -4.791  -1.291  0.00  0.00    +0.002 A 
ATOM     26  C   LIG    1       13.238  -4.353  -0.290  0.00  0.00    +0.031 A 
ATOM     27  C   LIG    1       12.170  -5.173   0.083  0.00  0.00    +0.110 A 
ATOM     28  N   LIG    1       11.175  -5.005   1.017  0.00  0.00    -0.213 NA
ENDBRANCH  19  20
ENDBRANCH  18  19
ENDBRANCH  17  18
ENDBRANCH   4  17
TORSDOF 6
