REMARK  Name = ZINC000006087141
REMARK                            x       y       z     vdW  Elec       q    Type
REMARK                         _______ _______ _______ _____ _____    ______ ____
ROOT
ATOM      1  C   LIG    1       -0.040  -1.188  -3.553  0.00  0.00    +0.222 C 
ENDROOT
BRANCH   1   2
ATOM      2  N   LIG    1       -0.182   0.212  -3.082  0.00  0.00    -0.290 N 
ATOM      3  C   LIG    1       -0.829   0.488  -1.891  0.00  0.00    +0.262 A 
ATOM      4  O   LIG    1       -1.311  -0.464  -1.274  0.00  0.00    -0.267 OA
ATOM      5  C   LIG    1       -0.885   1.862  -1.446  0.00  0.00    +0.068 A 
ATOM      6  C   LIG    1       -1.522   2.228  -0.250  0.00  0.00    +0.035 A 
ATOM      7  C   LIG    1       -1.552   3.562   0.141  0.00  0.00    +0.043 A 
ATOM      8 CL   LIG    1       -2.333   4.007   1.619  0.00  0.00    -0.083 Cl
ATOM      9  C   LIG    1       -0.953   4.544  -0.651  0.00  0.00    +0.042 A 
ATOM     10  C   LIG    1       -0.320   4.187  -1.836  0.00  0.00    +0.068 A 
ATOM     11 CL   LIG    1        0.413   5.435  -2.795  0.00  0.00    -0.081 Cl
ATOM     12  C   LIG    1       -0.275   2.836  -2.247  0.00  0.00    +0.096 A 
ATOM     13  N   LIG    1        0.375   2.446  -3.434  0.00  0.00    -0.235 NA
ATOM     14  C   LIG    1        0.420   1.225  -3.809  0.00  0.00    +0.203 A 
ENDBRANCH   1   2
BRANCH   1  17
ATOM     15  N   LIG    1        1.117  -2.040  -1.552  0.00  0.00    -0.281 N 
ATOM     16  H   LIG    1        0.230  -1.756  -1.092  0.00  0.00    +0.155 HD
ATOM     17  C   LIG    1        1.203  -1.753  -2.890  0.00  0.00    +0.237 C 
ATOM     18  O   LIG    1        2.244  -1.880  -3.502  0.00  0.00    -0.274 OA
BRANCH  15  20
ATOM     19  C   LIG    1        1.917  -2.257   0.705  0.00  0.00    +0.141 A 
ATOM     20  C   LIG    1        2.117  -2.510  -0.659  0.00  0.00    +0.076 A 
ATOM     21  C   LIG    1        3.247  -3.215  -1.081  0.00  0.00    +0.030 A 
ATOM     22  C   LIG    1        4.185  -3.648  -0.143  0.00  0.00    -0.048 A 
ATOM     23  C   LIG    1        5.409  -4.413  -0.596  0.00  0.00    +0.044 C 
ATOM     24  C   LIG    1        3.981  -3.390   1.214  0.00  0.00    +0.007 A 
ATOM     25  C   LIG    1        2.850  -2.696   1.642  0.00  0.00    +0.048 A 
BRANCH  19  27
ATOM     26  C   LIG    1        0.398  -1.257   2.449  0.00  0.00    +0.277 C 
ATOM     27  O   LIG    1        0.770  -1.563   1.087  0.00  0.00    -0.493 OA
ENDBRANCH  19  27
ENDBRANCH  15  20
ENDBRANCH   1  17
TORSDOF 4
