REMARK  Name = ZINC000049408510
REMARK                            x       y       z     vdW  Elec       q    Type
REMARK                         _______ _______ _______ _____ _____    ______ ____
ROOT
ATOM      1  N   LIG    1        0.913  -1.796   0.266  0.00  0.00    -0.199 N 
ENDROOT
BRANCH   1   2
ATOM      2  C   LIG    1        0.967  -0.720   1.166  0.00  0.00    +0.052 A 
ATOM      3  C   LIG    1        0.893  -0.901   2.557  0.00  0.00    +0.027 A 
ATOM      4  C   LIG    1        0.928   0.210   3.394  0.00  0.00    +0.040 A 
ATOM      5  C   LIG    1        1.040   1.476   2.829  0.00  0.00    +0.124 A 
ATOM      6  F   LIG    1        1.070   2.547   3.640  0.00  0.00    -0.205 F 
ATOM      7  C   LIG    1        1.124   1.670   1.455  0.00  0.00    +0.040 A 
ATOM      8  C   LIG    1        1.091   0.560   0.616  0.00  0.00    +0.027 A 
ENDBRANCH   1   2
BRANCH   1   9
ATOM      9  S   LIG    1       -0.556  -2.582   0.253  0.00  0.00    +0.076 S 
ATOM     10  O   LIG    1       -0.742  -3.227   1.504  0.00  0.00    -0.150 OA
ATOM     11  O   LIG    1       -0.611  -3.407  -0.900  0.00  0.00    -0.150 OA
BRANCH   9  12
ATOM     12  C   LIG    1       -1.783  -1.265   0.073  0.00  0.00    +0.125 A 
ATOM     13  C   LIG    1       -2.149  -0.817  -1.171  0.00  0.00    +0.123 A 
ATOM     14  N   LIG    1       -3.097   0.204  -1.267  0.00  0.00    -0.287 N 
ATOM     15  C   LIG    1       -3.595   0.806  -2.344  0.00  0.00    +0.229 A 
ATOM     16  N   LIG    1       -4.449   1.713  -1.977  0.00  0.00    -0.137 NA
ATOM     17  N   LIG    1       -4.514   1.703  -0.612  0.00  0.00    -0.130 NA
ATOM     18  C   LIG    1       -3.683   0.775  -0.195  0.00  0.00    +0.161 A 
ATOM     19  C   LIG    1       -3.327   0.308   1.104  0.00  0.00    +0.050 A 
ATOM     20  C   LIG    1       -2.402  -0.689   1.237  0.00  0.00    +0.034 A 
ENDBRANCH   9  12
ENDBRANCH   1   9
BRANCH   1  21
ATOM     21  C   LIG    1        1.955  -2.816   0.445  0.00  0.00    +0.167 C 
BRANCH  21  24
ATOM     22  C   LIG    1        2.659  -2.865  -2.475  0.00  0.00    +0.044 C 
ATOM     23  C   LIG    1        3.560  -2.201  -1.448  0.00  0.00    -0.046 A 
ATOM     24  C   LIG    1        3.232  -2.178  -0.085  0.00  0.00    -0.025 A 
ATOM     25  C   LIG    1        4.091  -1.546   0.817  0.00  0.00    +0.005 A 
ATOM     26  C   LIG    1        5.265  -0.947   0.376  0.00  0.00    +0.000 A 
ATOM     27  C   LIG    1        5.592  -0.976  -0.973  0.00  0.00    +0.000 A 
ATOM     28  C   LIG    1        4.743  -1.601  -1.880  0.00  0.00    +0.003 A 
ENDBRANCH  21  24
ENDBRANCH   1  21
TORSDOF 5
