REMARK  Name = ZINC000022625073
REMARK                            x       y       z     vdW  Elec       q    Type
REMARK                         _______ _______ _______ _____ _____    ______ ____
ROOT
ATOM      1  C   LIG    1       10.513  -4.397   4.006  0.00  0.00    +0.171 A 
ATOM      2  C   LIG    1       11.904  -4.436   3.908  0.00  0.00    +0.032 A 
ATOM      3  C   LIG    1       12.935  -3.487   3.320  0.00  0.00    +0.046 C 
ATOM      4  C   LIG    1       14.258  -3.649   4.119  0.00  0.00    +0.040 C 
ATOM      5  C   LIG    1       14.640  -5.127   4.289  0.00  0.00    -0.036 A 
ATOM      6  C   LIG    1       13.637  -6.088   4.496  0.00  0.00    +0.027 A 
ATOM      7  C   LIG    1       13.980  -7.421   4.736  0.00  0.00    +0.057 A 
ATOM      8  C   LIG    1       15.323  -7.788   4.748  0.00  0.00    +0.121 A 
ATOM      9  C   LIG    1       16.323  -6.844   4.531  0.00  0.00    +0.046 A 
ATOM     10  C   LIG    1       15.979  -5.514   4.307  0.00  0.00    +0.008 A 
ATOM     11  C   LIG    1       12.275  -5.621   4.411  0.00  0.00    +0.171 A 
ATOM     12  O   LIG    1       11.166  -6.265   4.800  0.00  0.00    -0.354 OA
ATOM     13  N   LIG    1       10.094  -5.516   4.554  0.00  0.00    -0.073 NA
ENDROOT
BRANCH   1  16
ATOM     14  N   LIG    1        8.285  -3.454   3.762  0.00  0.00    -0.307 N 
ATOM     15  H   LIG    1        7.984  -4.328   4.213  0.00  0.00    +0.149 HD
ATOM     16  C   LIG    1        9.632  -3.306   3.572  0.00  0.00    +0.266 C 
ATOM     17  O   LIG    1       10.025  -2.267   3.046  0.00  0.00    -0.268 OA
BRANCH  14  18
ATOM     18  C   LIG    1        7.300  -2.418   3.507  0.00  0.00    +0.070 C 
ATOM     19  C   LIG    1        6.325  -3.006   2.490  0.00  0.00    +0.028 C 
BRANCH  18  20
ATOM     20  C   LIG    1        6.589  -2.113   4.834  0.00  0.00    +0.023 C 
BRANCH  20  21
ATOM     21  C   LIG    1        7.524  -1.430   5.850  0.00  0.00    +0.017 C 
BRANCH  21  22
ATOM     22  C   LIG    1        6.684  -1.120   7.101  0.00  0.00    +0.084 C 
BRANCH  22  23
ATOM     23  N   LIG    1        7.613  -0.421   8.014  0.00  0.00    -0.303 NA
BRANCH  23  25
ATOM     24  C   LIG    1        6.929   1.863   8.008  0.00  0.00    +0.020 C 
ATOM     25  C   LIG    1        6.891   0.573   8.835  0.00  0.00    +0.081 C 
ENDBRANCH  23  25
BRANCH  23  26
ATOM     26  C   LIG    1        8.329  -1.390   8.871  0.00  0.00    +0.081 C 
ATOM     27  C   LIG    1        9.710  -0.766   9.097  0.00  0.00    +0.020 C 
ENDBRANCH  23  26
ENDBRANCH  22  23
ENDBRANCH  21  22
ENDBRANCH  20  21
ENDBRANCH  18  20
ENDBRANCH  14  18
ENDBRANCH   1  16
BRANCH   8  28
ATOM     28  O   LIG    1       15.725  -9.087   4.969  0.00  0.00    -0.495 OA
ATOM     29  C   LIG    1       14.834 -10.203   5.196  0.00  0.00    +0.277 C 
ENDBRANCH   8  28
TORSDOF 9
