REMARK  Name = ZINC000049410143
REMARK                            x       y       z     vdW  Elec       q    Type
REMARK                         _______ _______ _______ _____ _____    ______ ____
ROOT
ATOM      1  C   LIG    1        4.536  -1.917  -6.210  0.00  0.00    +0.262 A 
ATOM      2  O   LIG    1        4.167  -2.793  -7.137  0.00  0.00    -0.332 OA
ATOM      3  N   LIG    1        4.615  -2.389  -8.305  0.00  0.00    -0.054 NA
ATOM      4  C   LIG    1        5.242  -1.289  -8.063  0.00  0.00    +0.224 A 
ATOM      5  N   LIG    1        5.218  -0.968  -6.747  0.00  0.00    -0.185 NA
ENDROOT
BRANCH   1   9
ATOM      6  C   LIG    1        3.645  -2.414  -2.068  0.00  0.00    +0.124 A 
ATOM      7  C   LIG    1        2.801  -2.989  -3.008  0.00  0.00    +0.092 A 
ATOM      8  C   LIG    1        3.077  -2.822  -4.365  0.00  0.00    +0.136 A 
ATOM      9  C   LIG    1        4.205  -2.093  -4.800  0.00  0.00    +0.081 A 
ATOM     10  C   LIG    1        5.030  -1.514  -3.819  0.00  0.00    +0.020 A 
ATOM     11  C   LIG    1        4.760  -1.671  -2.465  0.00  0.00    +0.046 A 
BRANCH   6  13
ATOM     12  C   LIG    1        4.090  -2.094   0.375  0.00  0.00    +0.277 C 
ATOM     13  O   LIG    1        3.332  -2.607  -0.745  0.00  0.00    -0.495 OA
ENDBRANCH   6  13
BRANCH   8  14
ATOM     14  O   LIG    1        2.227  -3.360  -5.309  0.00  0.00    -0.494 OA
ATOM     15  C   LIG    1        1.018  -4.110  -5.047  0.00  0.00    +0.277 C 
ENDBRANCH   8  14
ENDBRANCH   1   9
BRANCH   4  16
ATOM     16  C   LIG    1        5.906  -0.461  -9.076  0.00  0.00    +0.153 A 
ATOM     17  N   LIG    1        5.993  -0.756 -10.405  0.00  0.00    -0.126 NA
ATOM     18  N   LIG    1        6.644   0.216 -10.990  0.00  0.00    -0.060 NA
ATOM     19  N   LIG    1        6.976   1.125 -10.051  0.00  0.00    -0.219 N 
ATOM     20  C   LIG    1        6.528   0.721  -8.860  0.00  0.00    +0.148 A 
BRANCH  19  21
ATOM     21  C   LIG    1        7.693   2.344 -10.331  0.00  0.00    +0.068 A 
ATOM     22  C   LIG    1        8.611   2.834  -9.399  0.00  0.00    +0.047 A 
ATOM     23  C   LIG    1        9.285   4.021  -9.683  0.00  0.00    +0.043 A 
ATOM     24 CL   LIG    1       10.425   4.654  -8.544  0.00  0.00    -0.083 Cl
ATOM     25  C   LIG    1        9.044   4.702 -10.880  0.00  0.00    +0.020 A 
ATOM     26  C   LIG    1        8.130   4.196 -11.802  0.00  0.00    +0.003 A 
ATOM     27  C   LIG    1        7.448   3.012 -11.535  0.00  0.00    +0.028 A 
ENDBRANCH  19  21
ENDBRANCH   4  16
TORSDOF 5
