REMARK  Name = ZINC000000576842
REMARK                            x       y       z     vdW  Elec       q    Type
REMARK                         _______ _______ _______ _____ _____    ______ ____
ROOT
ATOM      1  C   LIG    1        6.462   3.867   0.930  0.00  0.00    +0.143 A 
ATOM      2  C   LIG    1        7.791   3.826   1.361  0.00  0.00    +0.125 A 
ATOM      3 CL   LIG    1        8.674   2.332   1.370  0.00  0.00    -0.076 Cl
ATOM      4  C   LIG    1        8.397   5.015   1.783  0.00  0.00    +0.161 A 
ATOM      5  O   LIG    1        9.709   4.968   2.189  0.00  0.00    -0.420 OA
ATOM      6  C   LIG    1       10.394   6.057   2.588  0.00  0.00    +0.341 A 
ATOM      7  O   LIG    1       11.556   5.867   2.924  0.00  0.00    -0.245 OA
ATOM      8  C   LIG    1        9.721   7.344   2.611  0.00  0.00    +0.042 A 
ATOM      9  C   LIG    1        8.399   7.435   2.263  0.00  0.00    -0.030 A 
ATOM     10  C   LIG    1        7.614   8.745   2.336  0.00  0.00    +0.045 C 
ATOM     11  C   LIG    1        7.709   6.241   1.797  0.00  0.00    +0.022 A 
ATOM     12  C   LIG    1        6.375   6.247   1.341  0.00  0.00    +0.015 A 
ATOM     13  C   LIG    1        5.757   5.076   0.918  0.00  0.00    +0.048 A 
ENDROOT
BRANCH   1  14
ATOM     14  O   LIG    1        5.868   2.685   0.518  0.00  0.00    -0.479 OA
BRANCH  14  15
ATOM     15  C   LIG    1        4.520   2.490  -0.025  0.00  0.00    +0.349 C 
BRANCH  15  16
ATOM     16  C   LIG    1        4.500   3.061  -1.429  0.00  0.00    +0.345 C 
ATOM     17  O   LIG    1        3.999   4.154  -1.703  0.00  0.00    -0.247 OA
BRANCH  16  18
ATOM     18  O   LIG    1        5.053   2.313  -2.403  0.00  0.00    -0.463 OA
BRANCH  18  20
ATOM     19  C   LIG    1        3.830   2.191  -4.430  0.00  0.00    +0.048 C 
ATOM     20  C   LIG    1        5.107   2.735  -3.789  0.00  0.00    +0.229 C 
ENDBRANCH  18  20
ENDBRANCH  16  18
ENDBRANCH  15  16
ENDBRANCH  14  15
ENDBRANCH   1  14
BRANCH   8  21
ATOM     21  C   LIG    1       10.569   8.535   3.059  0.00  0.00    +0.058 C 
BRANCH  21  22
ATOM     22  C   LIG    1       10.422   8.601   4.589  0.00  0.00    +0.089 C 
BRANCH  22  23
ATOM     23  N   LIG    1       11.040   9.884   5.019  0.00  0.00    -0.303 NA
BRANCH  23  24
ATOM     24  C   LIG    1       12.532   9.908   4.993  0.00  0.00    +0.081 C 
ATOM     25  C   LIG    1       13.108   8.891   5.997  0.00  0.00    +0.020 C 
ENDBRANCH  23  24
BRANCH  23  26
ATOM     26  C   LIG    1       10.494  10.360   6.304  0.00  0.00    +0.081 C 
ATOM     27  C   LIG    1        9.271  11.205   5.926  0.00  0.00    +0.020 C 
ENDBRANCH  23  26
ENDBRANCH  22  23
ENDBRANCH  21  22
ENDBRANCH   8  21
TORSDOF 10
