REMARK  Name = ZINC000049410252
REMARK                            x       y       z     vdW  Elec       q    Type
REMARK                         _______ _______ _______ _____ _____    ______ ____
ROOT
ATOM      1  C   LIG    1        1.129   0.688   0.946  0.00  0.00    +0.068 C 
ATOM      2  C   LIG    1        2.580   0.560   0.504  0.00  0.00    +0.067 A 
ATOM      3  N   LIG    1        3.211  -0.613   0.340  0.00  0.00    -0.244 N 
ATOM      4  N   LIG    1        4.482  -0.416  -0.030  0.00  0.00    -0.064 NA
ATOM      5  N   LIG    1        4.684   0.872  -0.098  0.00  0.00    -0.126 NA
ATOM      6  C   LIG    1        3.525   1.505   0.236  0.00  0.00    +0.156 A 
ENDROOT
BRANCH   6   7
ATOM      7  C   LIG    1        3.400   2.971   0.293  0.00  0.00    +0.224 A 
ATOM      8  N   LIG    1        4.401   3.827  -0.032  0.00  0.00    -0.186 NA
ATOM      9  C   LIG    1        3.895   4.990   0.160  0.00  0.00    +0.259 A 
ATOM     10  O   LIG    1        2.641   4.883   0.579  0.00  0.00    -0.332 OA
ATOM     11  N   LIG    1        2.335   3.606   0.661  0.00  0.00    -0.054 NA
BRANCH   9  12
ATOM     12  C   LIG    1        4.515   6.296  -0.018  0.00  0.00    +0.040 A 
ATOM     13  C   LIG    1        5.848   6.397  -0.445  0.00  0.00    +0.015 A 
ATOM     14  C   LIG    1        6.457   7.633  -0.611  0.00  0.00    +0.024 A 
ATOM     15  C   LIG    1        5.744   8.812  -0.357  0.00  0.00    +0.029 A 
ATOM     16  C   LIG    1        4.411   8.725   0.071  0.00  0.00    +0.024 A 
ATOM     17  C   LIG    1        3.810   7.485   0.237  0.00  0.00    +0.015 A 
BRANCH  15  18
ATOM     18  N   LIG    1        6.380  10.065  -0.527  0.00  0.00    -0.336 N 
ATOM     19  C   LIG    1        7.409  10.198  -1.578  0.00  0.00    +0.129 C 
ATOM     20  C   LIG    1        5.709  11.317  -0.130  0.00  0.00    +0.129 C 
ENDBRANCH  15  18
ENDBRANCH   9  12
ENDBRANCH   6   7
BRANCH   3  21
ATOM     21  C   LIG    1        2.696  -1.972   0.529  0.00  0.00    +0.180 C 
BRANCH  21  22
ATOM     22  C   LIG    1        2.544  -2.192   2.028  0.00  0.00    -0.023 A 
ATOM     23  C   LIG    1        1.293  -2.485   2.575  0.00  0.00    +0.043 A 
ATOM     24  C   LIG    1        1.186  -2.681   3.945  0.00  0.00    +0.124 A 
ATOM     25  F   LIG    1       -0.029  -2.961   4.469  0.00  0.00    -0.205 F 
ATOM     26  C   LIG    1        2.281  -2.601   4.795  0.00  0.00    +0.038 A 
ATOM     27  C   LIG    1        3.527  -2.313   4.248  0.00  0.00    +0.003 A 
ATOM     28  C   LIG    1        3.657  -2.111   2.874  0.00  0.00    +0.005 A 
ENDBRANCH  21  22
ENDBRANCH   3  21
TORSDOF 5
