REMARK  Name = ZINC000009039460
REMARK                            x       y       z     vdW  Elec       q    Type
REMARK                         _______ _______ _______ _____ _____    ______ ____
ROOT
ATOM      1  N   LIG    1        8.650   0.060   1.583  0.00  0.00    -0.271 N 
ATOM      2  C   LIG    1        9.350  -1.115   1.562  0.00  0.00    +0.220 C 
ATOM      3  O   LIG    1        8.843  -2.210   1.679  0.00  0.00    -0.275 OA
ATOM      4  C   LIG    1       10.812  -0.851   1.362  0.00  0.00    +0.103 C 
ATOM      5  C   LIG    1       10.742   0.558   0.736  0.00  0.00    +0.033 C 
ATOM      6  C   LIG    1        9.525   1.210   1.419  0.00  0.00    +0.119 C 
ENDROOT
BRANCH   1  10
ATOM      7  C   LIG    1        4.503   0.524   2.007  0.00  0.00    +0.121 A 
ATOM      8  C   LIG    1        5.369   1.393   2.676  0.00  0.00    +0.047 A 
ATOM      9  C   LIG    1        6.744   1.227   2.543  0.00  0.00    +0.027 A 
ATOM     10  C   LIG    1        7.242   0.195   1.741  0.00  0.00    +0.036 A 
ATOM     11  C   LIG    1        6.372  -0.677   1.079  0.00  0.00    +0.027 A 
ATOM     12  C   LIG    1        4.998  -0.509   1.214  0.00  0.00    +0.047 A 
BRANCH   7  13
ATOM     13  O   LIG    1        3.131   0.646   2.096  0.00  0.00    -0.492 OA
BRANCH  13  15
ATOM     14  C   LIG    1        0.961   1.373   2.644  0.00  0.00    +0.048 C 
ATOM     15  C   LIG    1        2.445   1.634   2.890  0.00  0.00    +0.225 C 
ENDBRANCH  13  15
ENDBRANCH   7  13
ENDBRANCH   1  10
BRANCH   5  16
ATOM     16  C   LIG    1       12.007   1.373   1.046  0.00  0.00    +0.111 C 
BRANCH  16  17
ATOM     17  N   LIG    1       13.106   0.687   0.363  0.00  0.00    -0.299 N 
ATOM     18  H   LIG    1       13.046   0.542  -0.650  0.00  0.00    +0.150 HD
ATOM     19  C   LIG    1       14.308   0.505   0.962  0.00  0.00    +0.304 C 
ATOM     20  N   LIG    1       15.228  -0.085   0.147  0.00  0.00    -0.269 N 
ATOM     21  H   LIG    1       14.859  -0.481  -0.719  0.00  0.00    +0.156 HD
ATOM     22  O   LIG    1       14.518   0.831   2.122  0.00  0.00    -0.253 OA
BRANCH  20  23
ATOM     23  C   LIG    1       16.592  -0.317   0.451  0.00  0.00    +0.035 A 
ATOM     24  C   LIG    1       17.203  -1.432  -0.127  0.00  0.00    +0.025 A 
ATOM     25  C   LIG    1       18.548  -1.687   0.123  0.00  0.00    +0.022 A 
ATOM     26  C   LIG    1       19.279  -0.828   0.948  0.00  0.00    +0.041 A 
ATOM     27 CL   LIG    1       20.952  -1.149   1.256  0.00  0.00    -0.084 Cl
ATOM     28  C   LIG    1       18.666   0.288   1.522  0.00  0.00    +0.022 A 
ATOM     29  C   LIG    1       17.322   0.548   1.273  0.00  0.00    +0.025 A 
ENDBRANCH  20  23
ENDBRANCH  16  17
ENDBRANCH   5  16
TORSDOF 6
