REMARK  Name = ZINC000000622958
REMARK                            x       y       z     vdW  Elec       q    Type
REMARK                         _______ _______ _______ _____ _____    ______ ____
ROOT
ATOM      1  C   LIG    1        2.290   0.788  -0.286  0.00  0.00    +0.271 C 
ATOM      2  N   LIG    1        3.194   1.690  -0.954  0.00  0.00    -0.157 N 
ATOM      3  C   LIG    1        3.939   1.083  -1.851  0.00  0.00    +0.250 C 
ATOM      4  C   LIG    1        4.993   1.756  -2.718  0.00  0.00    +0.124 C 
ATOM      5  C   LIG    1        4.451   1.795  -4.166  0.00  0.00    +0.012 C 
ATOM      6  C   LIG    1        4.630   0.414  -4.825  0.00  0.00    +0.004 C 
ATOM      7  C   LIG    1        3.753  -0.726  -4.266  0.00  0.00    +0.045 C 
ATOM      8  C   LIG    1        4.243  -1.135  -2.863  0.00  0.00    +0.236 C 
ATOM      9  N   LIG    1        3.631  -0.187  -1.920  0.00  0.00    -0.258 N 
ATOM     10  C   LIG    1        2.502  -0.552  -1.035  0.00  0.00    +0.323 C 
ENDROOT
BRANCH   1  11
ATOM     11  C   LIG    1        0.840   1.275  -0.383  0.00  0.00    +0.034 A 
ATOM     12  C   LIG    1        0.273   1.512  -1.648  0.00  0.00    +0.060 A 
ATOM     13  C   LIG    1       -1.036   1.959  -1.721  0.00  0.00    +0.167 A 
ATOM     14  O   LIG    1       -1.734   2.242  -2.841  0.00  0.00    -0.453 OA
ATOM     15  C   LIG    1       -3.078   2.681  -2.384  0.00  0.00    +0.466 C 
ATOM     16  O   LIG    1       -3.028   2.601  -0.905  0.00  0.00    -0.453 OA
ATOM     17  C   LIG    1       -1.787   2.169  -0.594  0.00  0.00    +0.166 A 
ATOM     18  C   LIG    1       -1.264   1.943   0.669  0.00  0.00    +0.050 A 
ATOM     19  C   LIG    1        0.056   1.495   0.770  0.00  0.00    +0.014 A 
ENDBRANCH   1  11
BRANCH   2  20
ATOM     20  C   LIG    1        3.209   3.087  -0.701  0.00  0.00    +0.124 A 
ATOM     21  C   LIG    1        3.838   3.573   0.445  0.00  0.00    +0.050 A 
ATOM     22  C   LIG    1        3.858   4.946   0.676  0.00  0.00    +0.024 A 
ATOM     23  C   LIG    1        3.254   5.817  -0.236  0.00  0.00    +0.041 A 
ATOM     24 CL   LIG    1        3.283   7.522   0.054  0.00  0.00    -0.084 Cl
ATOM     25  C   LIG    1        2.626   5.317  -1.382  0.00  0.00    +0.024 A 
ATOM     26  C   LIG    1        2.602   3.946  -1.618  0.00  0.00    +0.050 A 
ENDBRANCH   2  20
BRANCH   1  27
ATOM     27  O   LIG    1        2.756   0.685   1.053  0.00  0.00    -0.347 OA
ATOM     28  H   LIG    1        3.724   0.667   1.030  0.00  0.00    +0.215 HD
ENDBRANCH   1  27
TORSDOF 3
