REMARK  Name = ZINC000049405733
REMARK                            x       y       z     vdW  Elec       q    Type
REMARK                         _______ _______ _______ _____ _____    ______ ____
ROOT
ATOM      1  C   LIG    1        4.162  -4.512  -5.577  0.00  0.00    +0.222 C 
ATOM      2  N   LIG    1        5.262  -4.014  -5.013  0.00  0.00    -0.311 N 
ATOM      3  H   LIG    1        6.090  -3.867  -5.570  0.00  0.00    +0.149 HD
ATOM      4  O   LIG    1        3.116  -4.583  -4.943  0.00  0.00    -0.275 OA
ENDROOT
BRANCH   1   5
ATOM      5  C   LIG    1        4.241  -4.927  -7.023  0.00  0.00    +0.193 C 
BRANCH   5   8
ATOM      6  C   LIG    1        3.621  -1.897  -8.714  0.00  0.00    +0.248 A 
ATOM      7  O   LIG    1        3.220  -2.996  -8.115  0.00  0.00    -0.420 OA
ATOM      8  C   LIG    1        4.308  -3.623  -7.770  0.00  0.00    +0.226 A 
ATOM      9  N   LIG    1        5.356  -2.978  -8.120  0.00  0.00    -0.112 NA
ATOM     10  N   LIG    1        4.914  -1.847  -8.742  0.00  0.00    -0.107 NA
BRANCH   6  14
ATOM     11  C   LIG    1        0.815   0.924 -10.236  0.00  0.00    +0.120 A 
ATOM     12  C   LIG    1        2.179   1.143 -10.406  0.00  0.00    +0.046 A 
ATOM     13  C   LIG    1        3.092   0.220  -9.910  0.00  0.00    +0.017 A 
ATOM     14  C   LIG    1        2.656  -0.934  -9.237  0.00  0.00    +0.039 A 
ATOM     15  C   LIG    1        1.273  -1.135  -9.078  0.00  0.00    +0.017 A 
ATOM     16  C   LIG    1        0.355  -0.215  -9.573  0.00  0.00    +0.046 A 
BRANCH  11  18
ATOM     17  C   LIG    1       -1.484   1.818 -10.654  0.00  0.00    +0.277 C 
ATOM     18  O   LIG    1       -0.042   1.870 -10.744  0.00  0.00    -0.495 OA
ENDBRANCH  11  18
ENDBRANCH   6  14
ENDBRANCH   5   8
ENDBRANCH   1   5
BRANCH   2  19
ATOM     19  C   LIG    1        5.265  -3.457  -3.673  0.00  0.00    +0.139 C 
BRANCH  19  20
ATOM     20  C   LIG    1        6.688  -2.963  -3.515  0.00  0.00    -0.030 A 
ATOM     21  C   LIG    1        7.613  -3.698  -2.775  0.00  0.00    +0.017 A 
ATOM     22  C   LIG    1        8.936  -3.260  -2.636  0.00  0.00    +0.055 A 
ATOM     23  C   LIG    1        9.313  -2.058  -3.249  0.00  0.00    +0.012 A 
ATOM     24  C   LIG    1        8.394  -1.325  -3.991  0.00  0.00    +0.001 A 
ATOM     25  C   LIG    1        7.087  -1.777  -4.126  0.00  0.00    +0.005 A 
BRANCH  22  26
ATOM     26  C   LIG    1        9.940  -4.072  -1.807  0.00  0.00    +0.417 C 
ATOM     27  F   LIG    1        9.694  -5.390  -1.936  0.00  0.00    -0.166 F 
ATOM     28  F   LIG    1        9.825  -3.732  -0.513  0.00  0.00    -0.166 F 
ATOM     29  F   LIG    1       11.202  -3.829  -2.213  0.00  0.00    -0.166 F 
ENDBRANCH  22  26
ENDBRANCH  19  20
ENDBRANCH   2  19
TORSDOF 7
