REMARK  Name = ZINC000119005907
REMARK                            x       y       z     vdW  Elec       q    Type
REMARK                         _______ _______ _______ _____ _____    ______ ____
ROOT
ATOM      1  C   LIG    1        7.367   7.154  -2.358  0.00  0.00    +0.148 A 
ATOM      2  N   LIG    1        8.558   7.530  -1.892  0.00  0.00    -0.162 NA
ATOM      3  N   LIG    1        9.257   7.988  -2.965  0.00  0.00    -0.239 N 
ATOM      4  C   LIG    1        8.516   7.911  -4.101  0.00  0.00    +0.115 A 
ATOM      5  C   LIG    1        7.327   7.387  -3.739  0.00  0.00    +0.054 A 
ENDROOT
BRANCH   3   6
ATOM      6  C   LIG    1       10.605   8.491  -2.860  0.00  0.00    +0.066 A 
ATOM      7  C   LIG    1       10.996   9.132  -1.683  0.00  0.00    +0.040 A 
ATOM      8  C   LIG    1       12.300   9.623  -1.559  0.00  0.00    +0.057 A 
ATOM      9  C   LIG    1       13.184   9.468  -2.638  0.00  0.00    +0.012 A 
ATOM     10  C   LIG    1       12.783   8.823  -3.807  0.00  0.00    +0.003 A 
ATOM     11  C   LIG    1       11.491   8.326  -3.926  0.00  0.00    +0.028 A 
BRANCH   8  12
ATOM     12  C   LIG    1       12.735  10.338  -0.271  0.00  0.00    +0.417 C 
ATOM     13  F   LIG    1       12.156   9.761   0.799  0.00  0.00    -0.166 F 
ATOM     14  F   LIG    1       12.358  11.624  -0.332  0.00  0.00    -0.166 F 
ATOM     15  F   LIG    1       14.072  10.279  -0.122  0.00  0.00    -0.166 F 
ENDBRANCH   8  12
ENDBRANCH   3   6
BRANCH   1  17
ATOM     16  N   LIG    1        6.257   6.345  -0.214  0.00  0.00    -0.268 N 
ATOM     17  C   LIG    1        6.228   6.583  -1.606  0.00  0.00    +0.271 C 
ATOM     18  O   LIG    1        5.180   6.279  -2.180  0.00  0.00    -0.268 OA
ATOM     19  C   LIG    1        7.440   6.612   0.620  0.00  0.00    +0.138 C 
BRANCH  16  23
ATOM     20  C   LIG    1        3.001   4.780   1.790  0.00  0.00    +0.214 A 
ATOM     21  N   LIG    1        4.122   4.050   1.715  0.00  0.00    -0.219 NA
ATOM     22  C   LIG    1        5.165   4.558   1.053  0.00  0.00    +0.138 A 
ATOM     23  C   LIG    1        5.113   5.824   0.455  0.00  0.00    +0.055 A 
ATOM     24  C   LIG    1        3.951   6.587   0.529  0.00  0.00    +0.030 A 
ATOM     25  C   LIG    1        2.875   6.045   1.214  0.00  0.00    +0.069 A 
BRANCH  20  27
ATOM     26  C   LIG    1        1.941   2.936   3.045  0.00  0.00    +0.279 C 
ATOM     27  O   LIG    1        1.923   4.263   2.462  0.00  0.00    -0.480 OA
ENDBRANCH  20  27
ENDBRANCH  16  23
ENDBRANCH   1  17
TORSDOF 5
