REMARK  Name = ZINC000000622478
REMARK                            x       y       z     vdW  Elec       q    Type
REMARK                         _______ _______ _______ _____ _____    ______ ____
ROOT
ATOM      1  C   LIG    1       -2.306  -1.209   1.413  0.00  0.00    +0.037 A 
ATOM      2  C   LIG    1       -1.579  -0.306   2.185  0.00  0.00    +0.069 A 
ATOM      3  C   LIG    1       -1.989   1.019   2.237  0.00  0.00    +0.133 A 
ATOM      4  C   LIG    1       -3.122   1.480   1.529  0.00  0.00    +0.101 A 
ATOM      5  C   LIG    1       -3.824   0.544   0.743  0.00  0.00    +0.020 A 
ATOM      6  C   LIG    1       -3.422  -0.784   0.681  0.00  0.00    +0.024 A 
ENDROOT
BRANCH   1   8
ATOM      7  C   LIG    1       -2.620  -3.690   1.235  0.00  0.00    +0.255 C 
ATOM      8  N   LIG    1       -1.859  -2.543   1.376  0.00  0.00    -0.281 N 
ATOM      9  H   LIG    1       -0.873  -2.727   1.606  0.00  0.00    +0.155 HD
ATOM     10  O   LIG    1       -3.841  -3.578   1.287  0.00  0.00    -0.270 OA
BRANCH   7  12
ATOM     11  C   LIG    1       -2.349  -5.904   0.111  0.00  0.00    +0.136 A 
ATOM     12  C   LIG    1       -1.915  -4.959   1.061  0.00  0.00    +0.120 A 
ATOM     13  C   LIG    1       -0.782  -5.294   1.835  0.00  0.00    +0.136 A 
ATOM     14  C   LIG    1       -0.141  -6.527   1.689  0.00  0.00    +0.046 A 
ATOM     15  C   LIG    1       -0.613  -7.447   0.758  0.00  0.00    +0.007 A 
ATOM     16  C   LIG    1       -1.714  -7.140  -0.034  0.00  0.00    +0.046 A 
BRANCH  11  18
ATOM     17  C   LIG    1       -4.093  -6.463  -1.630  0.00  0.00    +0.277 C 
ATOM     18  O   LIG    1       -3.409  -5.584  -0.709  0.00  0.00    -0.494 OA
ENDBRANCH  11  18
BRANCH  13  19
ATOM     19  O   LIG    1       -0.300  -4.382   2.757  0.00  0.00    -0.494 OA
ATOM     20  C   LIG    1        0.736  -4.622   3.742  0.00  0.00    +0.277 C 
ENDBRANCH  13  19
ENDBRANCH   7  12
ENDBRANCH   1   8
BRANCH   3  21
ATOM     21  O   LIG    1       -1.247   1.867   3.008  0.00  0.00    -0.506 OA
ATOM     22  H   LIG    1       -1.640   2.777   2.970  0.00  0.00    +0.292 HD
ENDBRANCH   3  21
BRANCH   4  23
ATOM     23  C   LIG    1       -3.549   2.872   1.609  0.00  0.00    +0.348 C 
ATOM     24  O   LIG    1       -2.950   3.739   2.241  0.00  0.00    -0.244 OA
BRANCH  23  25
ATOM     25  O   LIG    1       -4.697   3.217   0.959  0.00  0.00    -0.422 OA
BRANCH  25  26
ATOM     26  C   LIG    1       -5.267   4.470   0.800  0.00  0.00    +0.132 A 
ATOM     27  C   LIG    1       -6.657   4.537   0.799  0.00  0.00    +0.046 A 
ATOM     28  C   LIG    1       -7.282   5.769   0.626  0.00  0.00    +0.004 A 
ATOM     29  C   LIG    1       -6.517   6.921   0.451  0.00  0.00    +0.000 A 
ATOM     30  C   LIG    1       -5.124   6.844   0.447  0.00  0.00    +0.004 A 
ATOM     31  C   LIG    1       -4.492   5.616   0.618  0.00  0.00    +0.046 A 
ENDBRANCH  25  26
ENDBRANCH  23  25
ENDBRANCH   4  23
TORSDOF 8
