REMARK  Name = ZINC000000623173
REMARK                            x       y       z     vdW  Elec       q    Type
REMARK                         _______ _______ _______ _____ _____    ______ ____
ROOT
ATOM      1  C   LIG    1        7.585  -1.678  -0.200  0.00  0.00    +0.093 A 
ATOM      2  C   LIG    1        8.790  -2.384  -0.110  0.00  0.00    +0.075 A 
ATOM      3  N   LIG    1        9.956  -1.740  -0.175  0.00  0.00    -0.223 NA
ATOM      4  C   LIG    1        9.921  -0.418  -0.325  0.00  0.00    +0.207 A 
ATOM      5  N   LIG    1        8.760   0.279  -0.410  0.00  0.00    -0.122 NA
ATOM      6  N   LIG    1        7.600  -0.343  -0.349  0.00  0.00    -0.149 NA
ENDROOT
BRANCH   4   7
ATOM      7  S   LIG    1       11.405   0.460  -0.413  0.00  0.00    -0.102 S 
ATOM      8  H   LIG    1       10.797   1.687  -0.556  0.00  0.00    +0.110 HD
ENDBRANCH   4   7
BRANCH   1   9
ATOM      9  C   LIG    1        6.206  -2.312  -0.164  0.00  0.00    +0.138 C 
BRANCH   9  10
ATOM     10  C   LIG    1        5.881  -2.634  -1.609  0.00  0.00    +0.169 C 
ATOM     11  O   LIG    1        6.269  -3.710  -2.014  0.00  0.00    -0.292 OA
BRANCH  10  16
ATOM     12  C   LIG    1        2.948   0.843  -5.206  0.00  0.00    +0.044 C 
ATOM     13  C   LIG    1        3.713  -0.052  -4.256  0.00  0.00    -0.050 A 
ATOM     14  C   LIG    1        4.112   0.415  -3.006  0.00  0.00    +0.004 A 
ATOM     15  C   LIG    1        4.820  -0.408  -2.138  0.00  0.00    +0.011 A 
ATOM     16  C   LIG    1        5.147  -1.726  -2.501  0.00  0.00    +0.018 A 
ATOM     17  C   LIG    1        4.748  -2.177  -3.770  0.00  0.00    +0.011 A 
ATOM     18  C   LIG    1        4.040  -1.351  -4.634  0.00  0.00    +0.004 A 
ENDBRANCH  10  16
ENDBRANCH   9  10
ENDBRANCH   1   9
BRANCH   2  19
ATOM     19  C   LIG    1        8.887  -3.887   0.087  0.00  0.00    +0.137 C 
BRANCH  19  20
ATOM     20  C   LIG    1        8.875  -4.092   1.589  0.00  0.00    +0.169 C 
ATOM     21  O   LIG    1        7.781  -4.224   2.098  0.00  0.00    -0.292 OA
BRANCH  20  22
ATOM     22  C   LIG    1       10.086  -4.120   2.419  0.00  0.00    +0.018 A 
ATOM     23  C   LIG    1        9.984  -4.443   3.782  0.00  0.00    +0.011 A 
ATOM     24  C   LIG    1       11.109  -4.481   4.597  0.00  0.00    +0.004 A 
ATOM     25  C   LIG    1       12.366  -4.192   4.074  0.00  0.00    -0.050 A 
ATOM     26  C   LIG    1       13.592  -4.240   4.959  0.00  0.00    +0.044 C 
ATOM     27  C   LIG    1       12.486  -3.874   2.724  0.00  0.00    +0.004 A 
ATOM     28  C   LIG    1       11.363  -3.836   1.905  0.00  0.00    +0.011 A 
ENDBRANCH  20  22
ENDBRANCH  19  20
ENDBRANCH   2  19
TORSDOF 7
