REMARK  Name = ZINC000009035015
REMARK                            x       y       z     vdW  Elec       q    Type
REMARK                         _______ _______ _______ _____ _____    ______ ____
ROOT
ATOM      1  N   LIG    1        8.074  -3.773   1.901  0.00  0.00    -0.283 N 
ATOM      2  H   LIG    1        8.635  -3.009   2.302  0.00  0.00    +0.155 HD
ATOM      3  C   LIG    1        8.780  -4.907   1.579  0.00  0.00    +0.255 C 
ATOM      4  O   LIG    1        8.231  -5.883   1.109  0.00  0.00    -0.272 OA
ENDROOT
BRANCH   1  11
ATOM      5  C   LIG    1        1.067   0.869   0.230  0.00  0.00    +0.109 C 
ATOM      6  C   LIG    1        2.573   0.696   0.356  0.00  0.00    +0.213 C 
ATOM      7  N   LIG    1        3.081  -0.308   1.096  0.00  0.00    -0.297 N 
ATOM      8  C   LIG    1        4.555  -0.446   1.163  0.00  0.00    +0.143 C 
ATOM      9  C   LIG    1        4.936  -1.904   1.409  0.00  0.00    -0.025 A 
ATOM     10  C   LIG    1        6.288  -2.216   1.542  0.00  0.00    +0.028 A 
ATOM     11  C   LIG    1        6.686  -3.535   1.756  0.00  0.00    +0.034 A 
ATOM     12  C   LIG    1        5.738  -4.554   1.849  0.00  0.00    +0.023 A 
ATOM     13  C   LIG    1        4.390  -4.244   1.715  0.00  0.00    +0.006 A 
ATOM     14  C   LIG    1        3.982  -2.927   1.499  0.00  0.00    -0.041 A 
ATOM     15  C   LIG    1        2.506  -2.620   1.344  0.00  0.00    +0.054 C 
ATOM     16  C   LIG    1        2.277  -1.221   1.935  0.00  0.00    +0.113 C 
ATOM     17  O   LIG    1        3.295   1.492  -0.233  0.00  0.00    -0.276 OA
ENDBRANCH   1  11
BRANCH   3  18
ATOM     18  C   LIG    1       10.276  -4.884   1.839  0.00  0.00    +0.325 C 
BRANCH  18  19
ATOM     19  O   LIG    1       10.477  -4.405   3.211  0.00  0.00    -0.481 OA
BRANCH  19  20
ATOM     20  C   LIG    1       10.053  -5.040   4.378  0.00  0.00    +0.140 A 
ATOM     21  C   LIG    1       10.100  -4.319   5.581  0.00  0.00    +0.084 A 
ATOM     22 CL   LIG    1       10.657  -2.677   5.615  0.00  0.00    -0.080 Cl
ATOM     23  C   LIG    1        9.685  -4.923   6.766  0.00  0.00    +0.043 A 
ATOM     24  C   LIG    1        9.223  -6.239   6.746  0.00  0.00    +0.043 A 
ATOM     25 CL   LIG    1        8.705  -6.990   8.216  0.00  0.00    -0.083 Cl
ATOM     26  C   LIG    1        9.173  -6.955   5.548  0.00  0.00    +0.023 A 
ATOM     27  C   LIG    1        9.590  -6.357   4.361  0.00  0.00    +0.048 A 
ENDBRANCH  19  20
ENDBRANCH  18  19
ENDBRANCH   3  18
TORSDOF 4
