REMARK  Name = ZINC000000623204
REMARK                            x       y       z     vdW  Elec       q    Type
REMARK                         _______ _______ _______ _____ _____    ______ ____
ROOT
ATOM      1  C   LIG    1        4.956   6.242  -6.777  0.00  0.00    +0.124 A 
ATOM      2  C   LIG    1        6.323   6.280  -7.093  0.00  0.00    +0.067 A 
ATOM      3 CL   LIG    1        7.157   4.923  -7.783  0.00  0.00    -0.082 Cl
ATOM      4  C   LIG    1        7.074   7.430  -6.833  0.00  0.00    +0.023 A 
ATOM      5  C   LIG    1        6.479   8.541  -6.253  0.00  0.00    +0.014 A 
ATOM      6  C   LIG    1        5.115   8.528  -5.924  0.00  0.00    +0.039 A 
ATOM      7  C   LIG    1        4.374   7.368  -6.191  0.00  0.00    +0.043 A 
ENDROOT
BRANCH   6   8
ATOM      8  C   LIG    1        4.461   9.682  -5.307  0.00  0.00    +0.245 C 
ATOM      9  N   LIG    1        4.948  10.934  -5.542  0.00  0.00    -0.305 N 
ATOM     10  H   LIG    1        5.765  11.060  -6.147  0.00  0.00    +0.150 HD
ATOM     11  O   LIG    1        3.474   9.586  -4.588  0.00  0.00    -0.270 OA
BRANCH   9  12
ATOM     12  C   LIG    1        4.412  12.128  -4.920  0.00  0.00    +0.100 C 
ATOM     13  C   LIG    1        3.275  12.646  -5.811  0.00  0.00    +0.033 C 
BRANCH  12  14
ATOM     14  C   LIG    1        5.547  13.143  -4.903  0.00  0.00    -0.027 A 
ATOM     15  C   LIG    1        6.169  13.580  -6.078  0.00  0.00    +0.005 A 
ATOM     16  C   LIG    1        7.212  14.501  -6.024  0.00  0.00    +0.000 A 
ATOM     17  C   LIG    1        7.644  14.993  -4.798  0.00  0.00    +0.000 A 
ATOM     18  C   LIG    1        7.033  14.564  -3.625  0.00  0.00    +0.000 A 
ATOM     19  C   LIG    1        5.990  13.644  -3.678  0.00  0.00    +0.005 A 
ENDBRANCH  12  14
ENDBRANCH   9  12
ENDBRANCH   6   8
BRANCH   1  20
ATOM     20  S   LIG    1        3.954   4.787  -7.119  0.00  0.00    +0.062 S 
ATOM     21  O   LIG    1        2.604   5.083  -6.783  0.00  0.00    -0.153 OA
ATOM     22  O   LIG    1        4.180   4.376  -8.461  0.00  0.00    -0.153 OA
BRANCH  20  23
ATOM     23  N   LIG    1        4.518   3.613  -6.084  0.00  0.00    -0.177 NA
BRANCH  23  25
ATOM     24  C   LIG    1        3.376   4.021  -3.962  0.00  0.00    +0.022 C 
ATOM     25  C   LIG    1        4.740   3.881  -4.653  0.00  0.00    +0.106 C 
ENDBRANCH  23  25
BRANCH  23  26
ATOM     26  C   LIG    1        4.194   2.216  -6.381  0.00  0.00    +0.106 C 
ATOM     27  C   LIG    1        5.483   1.638  -6.972  0.00  0.00    +0.022 C 
ENDBRANCH  23  26
ENDBRANCH  20  23
ENDBRANCH   1  20
TORSDOF 7
