REMARK  Name = ZINC000049420917
REMARK                            x       y       z     vdW  Elec       q    Type
REMARK                         _______ _______ _______ _____ _____    ______ ____
ROOT
ATOM      1  N   LIG    1        6.655   0.680  -0.380  0.00  0.00    -0.205 N 
ATOM      2  C   LIG    1        7.443   1.846  -0.220  0.00  0.00    +0.160 A 
ATOM      3  N   LIG    1        6.832   2.951   0.232  0.00  0.00    -0.238 NA
ATOM      4  C   LIG    1        7.540   4.069   0.386  0.00  0.00    +0.113 A 
ATOM      5  C   LIG    1        8.902   4.121   0.099  0.00  0.00    +0.022 A 
ATOM      6  C   LIG    1        9.550   2.981  -0.363  0.00  0.00    +0.034 A 
ATOM      7  C   LIG    1        8.796   1.827  -0.532  0.00  0.00    +0.149 A 
ATOM      8  S   LIG    1        9.422   0.260  -1.037  0.00  0.00    +0.082 S 
ATOM      9  O   LIG    1        9.138   0.060  -2.407  0.00  0.00    -0.150 OA
ATOM     10  O   LIG    1       10.780   0.154  -0.645  0.00  0.00    -0.150 OA
ATOM     11  N   LIG    1        8.523  -0.788  -0.154  0.00  0.00    -0.150 N 
ATOM     12  C   LIG    1        7.195  -0.615  -0.392  0.00  0.00    +0.334 C 
ATOM     13  O   LIG    1        6.477  -1.588  -0.601  0.00  0.00    -0.250 OA
ENDROOT
BRANCH   1  18
ATOM     14  C   LIG    1        1.030   1.237  -1.202  0.00  0.00    +0.044 C 
ATOM     15  C   LIG    1        2.520   1.080  -0.985  0.00  0.00    -0.050 A 
ATOM     16  C   LIG    1        3.408   1.293  -2.041  0.00  0.00    +0.005 A 
ATOM     17  C   LIG    1        4.779   1.162  -1.846  0.00  0.00    +0.024 A 
ATOM     18  C   LIG    1        5.255   0.818  -0.582  0.00  0.00    +0.044 A 
ATOM     19  C   LIG    1        4.382   0.607   0.484  0.00  0.00    +0.024 A 
ATOM     20  C   LIG    1        3.013   0.741   0.277  0.00  0.00    +0.005 A 
ENDBRANCH   1  18
BRANCH  11  21
ATOM     21  C   LIG    1        9.073  -2.141  -0.108  0.00  0.00    +0.171 C 
BRANCH  21  22
ATOM     22  C   LIG    1        9.063  -2.481   1.369  0.00  0.00    -0.028 A 
ATOM     23  C   LIG    1       10.140  -2.104   2.179  0.00  0.00    +0.008 A 
ATOM     24  C   LIG    1       10.135  -2.408   3.538  0.00  0.00    +0.038 A 
ATOM     25  C   LIG    1        9.044  -3.083   4.067  0.00  0.00    +0.123 A 
ATOM     26  F   LIG    1        9.036  -3.381   5.388  0.00  0.00    -0.205 F 
ATOM     27  C   LIG    1        7.960  -3.462   3.287  0.00  0.00    +0.038 A 
ATOM     28  C   LIG    1        7.973  -3.156   1.929  0.00  0.00    +0.008 A 
ENDBRANCH  21  22
ENDBRANCH  11  21
TORSDOF 3
