REMARK  Name = ZINC000049408611
REMARK                            x       y       z     vdW  Elec       q    Type
REMARK                         _______ _______ _______ _____ _____    ______ ____
ROOT
ATOM      1  N   LIG    1        3.503  -0.182  -1.855  0.00  0.00    -0.199 N 
ENDROOT
BRANCH   1   2
ATOM      2  C   LIG    1        4.519   0.139  -2.773  0.00  0.00    +0.053 A 
ATOM      3  C   LIG    1        4.813   1.457  -3.134  0.00  0.00    +0.044 A 
ATOM      4  C   LIG    1        5.845   1.700  -4.036  0.00  0.00    +0.043 A 
ATOM      5 CL   LIG    1        6.224   3.327  -4.490  0.00  0.00    -0.083 Cl
ATOM      6  C   LIG    1        6.582   0.641  -4.573  0.00  0.00    +0.020 A 
ATOM      7  C   LIG    1        6.279  -0.668  -4.209  0.00  0.00    +0.003 A 
ATOM      8  C   LIG    1        5.247  -0.924  -3.312  0.00  0.00    +0.025 A 
ENDBRANCH   1   2
BRANCH   1  10
ATOM      9  O   LIG    1        2.941  -0.348   0.582  0.00  0.00    -0.150 OA
ATOM     10  S   LIG    1        3.877   0.263  -0.293  0.00  0.00    +0.076 S 
ATOM     11  O   LIG    1        3.972   1.678  -0.232  0.00  0.00    -0.150 OA
BRANCH  10  12
ATOM     12  C   LIG    1        5.507  -0.457   0.018  0.00  0.00    +0.125 A 
ATOM     13  C   LIG    1        5.626  -1.731   0.512  0.00  0.00    +0.123 A 
ATOM     14  N   LIG    1        6.904  -2.251   0.734  0.00  0.00    -0.287 N 
ATOM     15  C   LIG    1        7.272  -3.447   1.186  0.00  0.00    +0.229 A 
ATOM     16  N   LIG    1        8.568  -3.515   1.225  0.00  0.00    -0.137 NA
ATOM     17  N   LIG    1        9.066  -2.321   0.787  0.00  0.00    -0.130 NA
ATOM     18  C   LIG    1        8.037  -1.560   0.492  0.00  0.00    +0.161 A 
ATOM     19  C   LIG    1        7.929  -0.227  -0.002  0.00  0.00    +0.050 A 
ATOM     20  C   LIG    1        6.696   0.315  -0.231  0.00  0.00    +0.034 A 
ENDBRANCH  10  12
ENDBRANCH   1  10
BRANCH   1  21
ATOM     21  C   LIG    1        2.179   0.383  -2.148  0.00  0.00    +0.166 C 
BRANCH  21  22
ATOM     22  C   LIG    1        1.737  -0.270  -3.445  0.00  0.00    -0.028 A 
ATOM     23  C   LIG    1        1.766   0.439  -4.647  0.00  0.00    +0.005 A 
ATOM     24  C   LIG    1        1.366  -0.171  -5.832  0.00  0.00    +0.000 A 
ATOM     25  C   LIG    1        0.934  -1.493  -5.824  0.00  0.00    +0.000 A 
ATOM     26  C   LIG    1        0.904  -2.206  -4.630  0.00  0.00    +0.000 A 
ATOM     27  C   LIG    1        1.306  -1.597  -3.445  0.00  0.00    +0.005 A 
ENDBRANCH  21  22
ENDBRANCH   1  21
TORSDOF 5
