REMARK  Name = ZINC000078752093
REMARK                            x       y       z     vdW  Elec       q    Type
REMARK                         _______ _______ _______ _____ _____    ______ ____
ROOT
ATOM      1  S   LIG    1        7.336  -1.027  -0.830  0.00  0.00    +0.076 S 
ATOM      2  O   LIG    1        7.349  -2.246  -0.105  0.00  0.00    -0.150 OA
ATOM      3  O   LIG    1        8.605  -0.475  -1.144  0.00  0.00    -0.150 OA
ENDROOT
BRANCH   1   4
ATOM      4  C   LIG    1        6.415  -1.289  -2.367  0.00  0.00    +0.128 A 
ATOM      5  C   LIG    1        6.364  -0.306  -3.374  0.00  0.00    +0.070 A 
ATOM      6 CL   LIG    1        7.142   1.234  -3.211  0.00  0.00    -0.081 Cl
ATOM      7  C   LIG    1        5.649  -0.538  -4.550  0.00  0.00    +0.061 A 
ATOM      8  C   LIG    1        4.978  -1.737  -4.708  0.00  0.00    +0.139 A 
ATOM      9  F   LIG    1        4.291  -1.906  -5.874  0.00  0.00    -0.205 F 
ATOM     10  C   LIG    1        4.985  -2.745  -3.732  0.00  0.00    +0.096 A 
ATOM     11  C   LIG    1        5.729  -2.493  -2.566  0.00  0.00    +0.048 A 
BRANCH  10  12
ATOM     12  C   LIG    1        4.259  -4.005  -3.877  0.00  0.00    +0.340 C 
ATOM     13  O   LIG    1        4.226  -4.862  -3.020  0.00  0.00    -0.245 OA
BRANCH  12  14
ATOM     14  O   LIG    1        3.571  -4.294  -4.982  0.00  0.00    -0.477 OA
ATOM     15  H   LIG    1        3.642  -3.552  -5.614  0.00  0.00    +0.295 HD
ENDBRANCH  12  14
ENDBRANCH  10  12
ENDBRANCH   1   4
BRANCH   1  16
ATOM     16  N   LIG    1        6.439   0.099   0.053  0.00  0.00    -0.202 N 
BRANCH  16  21
ATOM     17  C   LIG    1        0.852  -0.451  -1.023  0.00  0.00    +0.044 C 
ATOM     18  C   LIG    1        2.328  -0.287  -0.731  0.00  0.00    -0.050 A 
ATOM     19  C   LIG    1        3.033  -1.312  -0.101  0.00  0.00    +0.005 A 
ATOM     20  C   LIG    1        4.387  -1.167   0.180  0.00  0.00    +0.025 A 
ATOM     21  C   LIG    1        5.050   0.008  -0.183  0.00  0.00    +0.051 A 
ATOM     22  C   LIG    1        4.343   1.050  -0.795  0.00  0.00    +0.025 A 
ATOM     23  C   LIG    1        2.988   0.895  -1.066  0.00  0.00    +0.005 A 
ENDBRANCH  16  21
BRANCH  16  24
ATOM     24  C   LIG    1        7.109   1.399   0.275  0.00  0.00    +0.146 C 
BRANCH  24  25
ATOM     25  C   LIG    1        6.545   1.945   1.600  0.00  0.00    +0.139 C 
BRANCH  25  26
ATOM     26  C   LIG    1        7.230   3.234   1.809  0.00  0.00    +0.064 C 
ATOM     27  N   LIG    1        7.757   4.227   1.961  0.00  0.00    -0.197 NA
ENDBRANCH  25  26
ENDBRANCH  24  25
ENDBRANCH  16  24
ENDBRANCH   1  16
TORSDOF 8
