REMARK  Name = ZINC000049422516
REMARK                            x       y       z     vdW  Elec       q    Type
REMARK                         _______ _______ _______ _____ _____    ______ ____
ROOT
ATOM      1  C   LIG    1        6.773   1.679  -2.349  0.00  0.00    +0.032 A 
ATOM      2  C   LIG    1        7.898   0.907  -2.045  0.00  0.00    +0.025 A 
ATOM      3  C   LIG    1        9.152   1.506  -2.019  0.00  0.00    +0.025 A 
ATOM      4  C   LIG    1        9.275   2.867  -2.309  0.00  0.00    +0.034 A 
ATOM      5  C   LIG    1        8.148   3.636  -2.622  0.00  0.00    +0.025 A 
ATOM      6  C   LIG    1        6.894   3.037  -2.647  0.00  0.00    +0.025 A 
ENDROOT
BRANCH   4   7
ATOM      7  N   LIG    1       10.575   3.427  -2.242  0.00  0.00    -0.285 N 
ATOM      8  H   LIG    1       11.218   3.030  -1.544  0.00  0.00    +0.155 HD
ATOM      9  C   LIG    1       11.092   4.443  -3.007  0.00  0.00    +0.222 C 
ATOM     10  O   LIG    1       10.421   4.989  -3.858  0.00  0.00    -0.275 OA
BRANCH   9  11
ATOM     11  C   LIG    1       12.537   4.827  -2.765  0.00  0.00    +0.138 C 
BRANCH  11  12
ATOM     12  C   LIG    1       12.661   5.205  -1.302  0.00  0.00    -0.001 A 
ATOM     13  S   LIG    1       13.424   4.141  -0.171  0.00  0.00    -0.101 S 
ATOM     14  C   LIG    1       13.132   5.253   1.118  0.00  0.00    +0.045 A 
ATOM     15  C   LIG    1       12.482   6.372   0.684  0.00  0.00    +0.008 A 
ATOM     16  C   LIG    1       12.212   6.344  -0.694  0.00  0.00    +0.011 A 
ENDBRANCH  11  12
ENDBRANCH   9  11
ENDBRANCH   4   7
BRANCH   1  17
ATOM     17  N   LIG    1        5.493   1.095  -2.376  0.00  0.00    -0.299 N 
ATOM     18  H   LIG    1        4.859   1.308  -3.156  0.00  0.00    +0.154 HD
BRANCH  17  24
ATOM     19  C   LIG    1        1.867  -1.650  -1.227  0.00  0.00    +0.088 C 
ATOM     20  C   LIG    1        3.178  -1.024  -0.837  0.00  0.00    +0.130 A 
ATOM     21  N   LIG    1        3.651  -1.267   0.381  0.00  0.00    -0.213 NA
ATOM     22  C   LIG    1        4.816  -0.695   0.733  0.00  0.00    +0.159 A 
ATOM     23  C   LIG    1        5.504   0.125  -0.140  0.00  0.00    +0.092 A 
ATOM     24  C   LIG    1        4.939   0.312  -1.391  0.00  0.00    +0.128 A 
ATOM     25  N   LIG    1        3.787  -0.249  -1.726  0.00  0.00    -0.217 NA
BRANCH  22  26
ATOM     26  N   LIG    1        5.357  -0.947   2.059  0.00  0.00    -0.222 N 
ATOM     27  N   LIG    1        6.579  -0.470   2.493  0.00  0.00    -0.173 NA
ATOM     28  C   LIG    1        6.703  -0.902   3.716  0.00  0.00    +0.135 A 
ATOM     29  C   LIG    1        5.595  -1.651   4.099  0.00  0.00    +0.041 A 
ATOM     30  C   LIG    1        4.753  -1.673   3.044  0.00  0.00    +0.116 A 
ENDBRANCH  22  26
ENDBRANCH  17  24
ENDBRANCH   1  17
TORSDOF 6
