REMARK  Name = ZINC000193546412
REMARK                            x       y       z     vdW  Elec       q    Type
REMARK                         _______ _______ _______ _____ _____    ______ ____
ROOT
ATOM      1  C   LIG    1        4.914  -2.423  -4.469  0.00  0.00    +0.171 A 
ATOM      2  N   LIG    1        4.503  -3.545  -5.142  0.00  0.00    -0.204 NA
ATOM      3  C   LIG    1        5.166  -3.624  -6.242  0.00  0.00    +0.185 A 
ATOM      4  S   LIG    1        6.291  -2.355  -6.483  0.00  0.00    +0.050 S 
ATOM      5  N   LIG    1        5.842  -1.699  -5.043  0.00  0.00    -0.187 NA
ENDROOT
BRANCH   1   9
ATOM      6  C   LIG    1        3.239  -1.333  -0.686  0.00  0.00    +0.120 A 
ATOM      7  C   LIG    1        2.817  -2.503  -1.318  0.00  0.00    +0.046 A 
ATOM      8  C   LIG    1        3.366  -2.853  -2.547  0.00  0.00    +0.015 A 
ATOM      9  C   LIG    1        4.340  -2.049  -3.169  0.00  0.00    +0.020 A 
ATOM     10  C   LIG    1        4.744  -0.875  -2.505  0.00  0.00    +0.015 A 
ATOM     11  C   LIG    1        4.199  -0.520  -1.276  0.00  0.00    +0.046 A 
BRANCH   6  13
ATOM     12  C   LIG    1        1.736  -1.650   1.291  0.00  0.00    +0.277 C 
ATOM     13  O   LIG    1        2.735  -0.933   0.530  0.00  0.00    -0.495 OA
ENDBRANCH   6  13
ENDBRANCH   1   9
BRANCH   3  14
ATOM     14  N   LIG    1        4.912  -4.695  -7.101  0.00  0.00    -0.259 N 
ATOM     15  H   LIG    1        4.197  -5.347  -6.767  0.00  0.00    +0.157 HD
ATOM     16  C   LIG    1        5.487  -4.975  -8.312  0.00  0.00    +0.254 C 
ATOM     17  O   LIG    1        6.350  -4.217  -8.726  0.00  0.00    -0.270 OA
BRANCH  16  18
ATOM     18  C   LIG    1        5.065  -6.154  -9.056  0.00  0.00    +0.089 A 
ATOM     19  C   LIG    1        4.084  -7.069  -8.780  0.00  0.00    +0.182 A 
ATOM     20 BR   LIG    1        2.840  -7.249  -7.370  0.00  0.00    -0.008 Br
ATOM     21  O   LIG    1        4.045  -8.003  -9.752  0.00  0.00    -0.456 OA
ATOM     22  C   LIG    1        5.001  -7.695 -10.661  0.00  0.00    +0.197 A 
ATOM     23  C   LIG    1        5.642  -6.574 -10.271  0.00  0.00    +0.055 A 
ENDBRANCH  16  18
ENDBRANCH   3  14
TORSDOF 4
