REMARK  Name = ZINC000006086009
REMARK                            x       y       z     vdW  Elec       q    Type
REMARK                         _______ _______ _______ _____ _____    ______ ____
ROOT
ATOM      1  N   LIG    1        0.219   0.291   2.585  0.00  0.00    -0.286 NA
ATOM      2  C   LIG    1       -0.012   1.680   2.112  0.00  0.00    +0.106 C 
ENDROOT
BRANCH   1   3
ATOM      3  C   LIG    1       -0.560  -0.706   1.739  0.00  0.00    +0.140 C 
ATOM      4  C   LIG    1        0.308  -0.983   0.494  0.00  0.00    +0.034 C 
BRANCH   3   7
ATOM      5  N   LIG    1       -1.988  -2.104   3.193  0.00  0.00    -0.281 N 
ATOM      6  H   LIG    1       -2.544  -1.240   3.230  0.00  0.00    +0.155 HD
ATOM      7  C   LIG    1       -0.832  -2.052   2.455  0.00  0.00    +0.234 C 
ATOM      8  O   LIG    1       -0.062  -2.996   2.452  0.00  0.00    -0.274 OA
BRANCH   5  10
ATOM      9  C   LIG    1       -3.137  -2.661   5.226  0.00  0.00    +0.141 A 
ATOM     10  C   LIG    1       -2.396  -3.096   4.119  0.00  0.00    +0.076 A 
ATOM     11  C   LIG    1       -2.100  -4.450   3.958  0.00  0.00    +0.027 A 
ATOM     12  C   LIG    1       -2.534  -5.364   4.916  0.00  0.00    +0.002 A 
ATOM     13  C   LIG    1       -3.264  -4.932   6.023  0.00  0.00    +0.004 A 
ATOM     14  C   LIG    1       -3.570  -3.580   6.182  0.00  0.00    +0.047 A 
BRANCH   9  16
ATOM     15  C   LIG    1       -4.037  -0.681   6.491  0.00  0.00    +0.277 C 
ATOM     16  O   LIG    1       -3.415  -1.297   5.338  0.00  0.00    -0.493 OA
ENDBRANCH   9  16
ENDBRANCH   5  10
ENDBRANCH   3   7
ENDBRANCH   1   3
BRANCH   1  17
ATOM     17  C   LIG    1       -0.074   0.196   4.085  0.00  0.00    +0.181 C 
BRANCH  17  18
ATOM     18  C   LIG    1        0.987   0.953   4.877  0.00  0.00    +0.231 C 
ATOM     19  N   LIG    1        2.266   0.810   4.406  0.00  0.00    -0.284 N 
ATOM     20  H   LIG    1        2.300   0.261   3.533  0.00  0.00    +0.155 HD
ATOM     21  O   LIG    1        0.728   1.610   5.865  0.00  0.00    -0.274 OA
BRANCH  19  22
ATOM     22  C   LIG    1        3.500   1.274   4.923  0.00  0.00    +0.041 A 
ATOM     23  C   LIG    1        4.685   0.580   4.520  0.00  0.00    +0.003 A 
ATOM     24  C   LIG    1        4.674  -0.571   3.681  0.00  0.00    +0.010 A 
ATOM     25  C   LIG    1        5.846  -1.192   3.317  0.00  0.00    +0.001 A 
ATOM     26  C   LIG    1        7.083  -0.699   3.776  0.00  0.00    +0.001 A 
ATOM     27  C   LIG    1        7.127   0.402   4.596  0.00  0.00    +0.008 A 
ATOM     28  C   LIG    1        5.934   1.061   4.991  0.00  0.00    -0.016 A 
ATOM     29  C   LIG    1        5.972   2.189   5.851  0.00  0.00    +0.008 A 
ATOM     30  C   LIG    1        4.813   2.827   6.227  0.00  0.00    +0.002 A 
ATOM     31  C   LIG    1        3.567   2.374   5.759  0.00  0.00    +0.024 A 
ENDBRANCH  19  22
ENDBRANCH  17  18
ENDBRANCH   1  17
TORSDOF 7
