REMARK  Name = ZINC000049403504
REMARK                            x       y       z     vdW  Elec       q    Type
REMARK                         _______ _______ _______ _____ _____    ______ ____
ROOT
ATOM      1  N   LIG    1       -2.421  -5.146  -1.222  0.00  0.00    -0.294 NA
ATOM      2  C   LIG    1       -3.363  -6.073  -1.903  0.00  0.00    +0.085 C 
ATOM      3  C   LIG    1       -3.499  -5.652  -3.379  0.00  0.00    +0.028 C 
ATOM      4  C   LIG    1       -3.987  -4.191  -3.449  0.00  0.00    +0.080 C 
ATOM      5  C   LIG    1       -3.067  -3.245  -2.643  0.00  0.00    +0.028 C 
ATOM      6  C   LIG    1       -2.914  -3.753  -1.192  0.00  0.00    +0.085 C 
ENDROOT
BRANCH   4   7
ATOM      7  C   LIG    1       -5.447  -4.099  -3.006  0.00  0.00    +0.231 A 
ATOM      8  O   LIG    1       -6.362  -4.750  -3.698  0.00  0.00    -0.337 OA
ATOM      9  N   LIG    1       -7.535  -4.528  -3.144  0.00  0.00    -0.056 NA
ATOM     10  C   LIG    1       -7.294  -3.752  -2.143  0.00  0.00    +0.209 A 
ATOM     11  N   LIG    1       -5.972  -3.464  -2.039  0.00  0.00    -0.191 NA
BRANCH  10  12
ATOM     12  C   LIG    1       -8.314  -3.248  -1.234  0.00  0.00    +0.060 A 
ATOM     13  S   LIG    1       -7.911  -2.245   0.128  0.00  0.00    -0.093 S 
ATOM     14  C   LIG    1       -9.569  -2.135   0.596  0.00  0.00    +0.046 A 
ATOM     15  C   LIG    1      -10.381  -2.832  -0.252  0.00  0.00    +0.008 A 
ATOM     16  C   LIG    1       -9.674  -3.462  -1.287  0.00  0.00    +0.019 A 
ENDBRANCH  10  12
ENDBRANCH   4   7
BRANCH   1  17
ATOM     17  C   LIG    1       -0.965  -5.267  -1.650  0.00  0.00    +0.180 C 
BRANCH  17  20
ATOM     18  N   LIG    1       -0.904  -7.149  -0.082  0.00  0.00    -0.284 N 
ATOM     19  H   LIG    1       -1.649  -6.559   0.317  0.00  0.00    +0.155 HD
ATOM     20  C   LIG    1       -0.395  -6.623  -1.240  0.00  0.00    +0.231 C 
ATOM     21  O   LIG    1        0.470  -7.184  -1.882  0.00  0.00    -0.274 OA
BRANCH  18  24
ATOM     22  C   LIG    1       -1.677  -7.271   2.667  0.00  0.00    +0.045 C 
ATOM     23  C   LIG    1       -0.963  -8.417   1.970  0.00  0.00    -0.029 A 
ATOM     24  C   LIG    1       -0.581  -8.340   0.621  0.00  0.00    +0.036 A 
ATOM     25  C   LIG    1        0.068  -9.412   0.001  0.00  0.00    +0.023 A 
ATOM     26  C   LIG    1        0.351 -10.560   0.731  0.00  0.00    +0.002 A 
ATOM     27  C   LIG    1       -0.017 -10.644   2.070  0.00  0.00    +0.000 A 
ATOM     28  C   LIG    1       -0.672  -9.579   2.683  0.00  0.00    +0.005 A 
ENDBRANCH  18  24
ENDBRANCH  17  20
ENDBRANCH   1  17
TORSDOF 5
