REMARK  Name = ZINC000049483930
REMARK                            x       y       z     vdW  Elec       q    Type
REMARK                         _______ _______ _______ _____ _____    ______ ____
ROOT
ATOM      1  O   LIG    1        4.146   0.887  -0.743  0.00  0.00    -0.275 OA
ATOM      2  C   LIG    1        3.315   0.043  -0.474  0.00  0.00    +0.226 C 
ATOM      3  N   LIG    1        3.714  -1.257  -0.414  0.00  0.00    -0.299 N 
ATOM      4  C   LIG    1        3.023  -2.492  -0.041  0.00  0.00    +0.122 C 
ATOM      5  C   LIG    1        4.390  -3.204  -0.288  0.00  0.00    +0.112 C 
ATOM      6  C   LIG    1        5.055  -1.822  -0.566  0.00  0.00    +0.122 C 
ENDROOT
BRANCH   5   7
ATOM      7  C   LIG    1        4.365  -4.070  -1.528  0.00  0.00    +0.234 A 
ATOM      8  O   LIG    1        3.878  -3.613  -2.666  0.00  0.00    -0.337 OA
ATOM      9  N   LIG    1        3.985  -4.565  -3.567  0.00  0.00    -0.056 NA
ATOM     10  C   LIG    1        4.530  -5.558  -2.951  0.00  0.00    +0.209 A 
ATOM     11  N   LIG    1        4.778  -5.264  -1.649  0.00  0.00    -0.191 NA
BRANCH  10  12
ATOM     12  C   LIG    1        4.845  -6.836  -3.578  0.00  0.00    +0.060 A 
ATOM     13  S   LIG    1        5.550  -8.148  -2.681  0.00  0.00    -0.093 S 
ATOM     14  C   LIG    1        5.575  -9.154  -4.083  0.00  0.00    +0.046 A 
ATOM     15  C   LIG    1        5.068  -8.512  -5.176  0.00  0.00    +0.008 A 
ATOM     16  C   LIG    1        4.655  -7.202  -4.892  0.00  0.00    +0.019 A 
ENDBRANCH  10  12
ENDBRANCH   5   7
BRANCH   2  17
ATOM     17  C   LIG    1        1.872   0.395  -0.180  0.00  0.00    +0.174 C 
BRANCH  17  18
ATOM     18  S   LIG    1        1.730   0.366   1.646  0.00  0.00    -0.058 S 
BRANCH  18  19
ATOM     19  C   LIG    1        0.063   0.791   1.852  0.00  0.00    +0.258 A 
ATOM     20  O   LIG    1       -0.415   0.890   3.125  0.00  0.00    -0.431 OA
ATOM     21  C   LIG    1       -1.702   1.227   2.965  0.00  0.00    +0.156 A 
ATOM     22  C   LIG    1       -2.674   1.464   3.932  0.00  0.00    +0.048 A 
ATOM     23  C   LIG    1       -3.951   1.804   3.496  0.00  0.00    +0.004 A 
ATOM     24  C   LIG    1       -4.227   1.898   2.118  0.00  0.00    +0.002 A 
ATOM     25  C   LIG    1       -3.231   1.655   1.175  0.00  0.00    +0.031 A 
ATOM     26  C   LIG    1       -1.947   1.314   1.613  0.00  0.00    +0.110 A 
ATOM     27  N   LIG    1       -0.803   1.028   0.916  0.00  0.00    -0.203 NA
ENDBRANCH  18  19
ENDBRANCH  17  18
ENDBRANCH   2  17
TORSDOF 5
