REMARK  Name = ZINC000000623135
REMARK                            x       y       z     vdW  Elec       q    Type
REMARK                         _______ _______ _______ _____ _____    ______ ____
ROOT
ATOM      1  N   LIG    1        4.328  -2.228  -2.490  0.00  0.00    -0.299 N 
ATOM      2  H   LIG    1        5.260  -1.903  -2.768  0.00  0.00    +0.150 HD
ENDROOT
BRANCH   1   5
ATOM      3  C   LIG    1        2.390   0.051  -2.973  0.00  0.00    +0.409 C 
ATOM      4  N   LIG    1        3.239  -0.658  -3.774  0.00  0.00    -0.212 N 
ATOM      5  C   LIG    1        3.391  -2.093  -3.561  0.00  0.00    +0.235 C 
ATOM      6  S   LIG    1        4.362  -2.702  -5.007  0.00  0.00    -0.086 S 
ATOM      7  C   LIG    1        4.651  -1.074  -5.527  0.00  0.00    +0.006 C 
ATOM      8  C   LIG    1        5.498  -0.520  -6.629  0.00  0.00    +0.044 C 
ATOM      9  C   LIG    1        4.960   0.951  -6.670  0.00  0.00    +0.011 C 
ATOM     10  C   LIG    1        4.288   1.261  -5.291  0.00  0.00    +0.052 C 
ATOM     11  C   LIG    1        4.029  -0.139  -4.832  0.00  0.00    +0.029 C 
ATOM     12  O   LIG    1        2.285   1.272  -3.029  0.00  0.00    -0.226 OA
BRANCH   3  13
ATOM     13  O   LIG    1        1.646  -0.688  -2.117  0.00  0.00    -0.450 OA
BRANCH  13  15
ATOM     14  C   LIG    1        1.673   0.127   0.101  0.00  0.00    +0.048 C 
ATOM     15  C   LIG    1        0.785  -0.084  -1.125  0.00  0.00    +0.230 C 
ENDBRANCH  13  15
ENDBRANCH   3  13
ENDBRANCH   1   5
BRANCH   1  16
ATOM     16  C   LIG    1        4.354  -3.422  -1.831  0.00  0.00    +0.136 C 
ATOM     17  S   LIG    1        3.026  -4.417  -1.605  0.00  0.00    -0.018 S 
BRANCH  16  18
ATOM     18  N   LIG    1        5.610  -3.773  -1.366  0.00  0.00    -0.297 N 
ATOM     19  H   LIG    1        5.682  -4.744  -1.037  0.00  0.00    +0.154 HD
BRANCH  18  20
ATOM     20  C   LIG    1        6.805  -3.042  -1.536  0.00  0.00    +0.033 A 
ATOM     21  C   LIG    1        6.904  -1.725  -1.077  0.00  0.00    +0.027 A 
ATOM     22  C   LIG    1        8.089  -1.023  -1.265  0.00  0.00    +0.047 A 
ATOM     23  C   LIG    1        9.166  -1.642  -1.898  0.00  0.00    +0.120 A 
ATOM     24  C   LIG    1        9.072  -2.963  -2.346  0.00  0.00    +0.047 A 
ATOM     25  C   LIG    1        7.886  -3.666  -2.162  0.00  0.00    +0.027 A 
BRANCH  23  26
ATOM     26  O   LIG    1       10.315  -0.893  -2.059  0.00  0.00    -0.495 OA
ATOM     27  C   LIG    1       11.532  -1.362  -2.683  0.00  0.00    +0.277 C 
ENDBRANCH  23  26
ENDBRANCH  18  20
ENDBRANCH  16  18
ENDBRANCH   1  16
TORSDOF 7
