REMARK  Name = ZINC000000622864
REMARK                            x       y       z     vdW  Elec       q    Type
REMARK                         _______ _______ _______ _____ _____    ______ ____
ROOT
ATOM      1  N   LIG    1        5.516  -2.754  -1.182  0.00  0.00    -0.187 N 
ATOM      2  C   LIG    1        4.892  -3.895  -0.847  0.00  0.00    +0.214 A 
ATOM      3  N   LIG    1        5.770  -4.838  -0.745  0.00  0.00    -0.101 NA
ATOM      4  N   LIG    1        6.971  -4.256  -1.022  0.00  0.00    -0.022 NA
ATOM      5  N   LIG    1        6.827  -2.992  -1.284  0.00  0.00    -0.038 NA
ENDROOT
BRANCH   1   9
ATOM      6  C   LIG    1        2.154   0.122  -3.454  0.00  0.00    +0.044 C 
ATOM      7  C   LIG    1        3.307  -0.054  -2.489  0.00  0.00    -0.048 A 
ATOM      8  C   LIG    1        3.869  -1.313  -2.296  0.00  0.00    +0.031 A 
ATOM      9  C   LIG    1        4.931  -1.457  -1.399  0.00  0.00    +0.070 A 
ATOM     10  C   LIG    1        5.452  -0.361  -0.709  0.00  0.00    +0.028 A 
ATOM     11  C   LIG    1        4.890   0.893  -0.916  0.00  0.00    +0.002 A 
ATOM     12  C   LIG    1        3.823   1.045  -1.800  0.00  0.00    +0.003 A 
ENDBRANCH   1   9
BRANCH   2  13
ATOM     13  S   LIG    1        3.166  -4.016  -0.587  0.00  0.00    -0.076 S 
BRANCH  13  14
ATOM     14  C   LIG    1        2.888  -5.828  -0.533  0.00  0.00    +0.157 C 
BRANCH  14  15
ATOM     15  C   LIG    1        3.040  -6.315  -1.967  0.00  0.00    +0.173 C 
ATOM     16  O   LIG    1        2.184  -5.958  -2.751  0.00  0.00    -0.291 OA
BRANCH  15  17
ATOM     17  C   LIG    1        4.138  -7.175  -2.424  0.00  0.00    +0.018 A 
ATOM     18  C   LIG    1        4.349  -7.351  -3.803  0.00  0.00    +0.012 A 
ATOM     19  C   LIG    1        5.382  -8.153  -4.275  0.00  0.00    +0.016 A 
ATOM     20  C   LIG    1        6.229  -8.800  -3.380  0.00  0.00    +0.018 A 
ATOM     21 BR   LIG    1        7.638  -9.891  -4.022  0.00  0.00    -0.050 Br
ATOM     22  C   LIG    1        6.034  -8.644  -2.010  0.00  0.00    +0.016 A 
ATOM     23  C   LIG    1        5.000  -7.844  -1.534  0.00  0.00    +0.012 A 
ENDBRANCH  15  17
ENDBRANCH  14  15
ENDBRANCH  13  14
ENDBRANCH   2  13
TORSDOF 5
