REMARK  Name = ZINC000049403997
REMARK                            x       y       z     vdW  Elec       q    Type
REMARK                         _______ _______ _______ _____ _____    ______ ____
ROOT
ATOM      1  C   LIG    1        2.259  -0.480   0.110  0.00  0.00    +0.171 C 
ENDROOT
BRANCH   1   3
ATOM      2  O   LIG    1        3.744   1.379  -0.116  0.00  0.00    -0.275 OA
ATOM      3  C   LIG    1        2.961   0.622  -0.652  0.00  0.00    +0.227 C 
ATOM      4  N   LIG    1        2.689   0.726  -1.995  0.00  0.00    -0.285 N 
ATOM      5  H   LIG    1        2.013   0.044  -2.362  0.00  0.00    +0.155 HD
BRANCH   4   6
ATOM      6  C   LIG    1        3.235   1.659  -2.915  0.00  0.00    +0.035 A 
ATOM      7  C   LIG    1        3.429   1.225  -4.225  0.00  0.00    +0.044 A 
ATOM      8  C   LIG    1        3.950   2.105  -5.171  0.00  0.00    +0.061 A 
ATOM      9 CL   LIG    1        4.188   1.545  -6.794  0.00  0.00    -0.082 Cl
ATOM     10  C   LIG    1        4.273   3.424  -4.802  0.00  0.00    +0.059 A 
ATOM     11 CL   LIG    1        4.925   4.543  -5.953  0.00  0.00    -0.082 Cl
ATOM     12  C   LIG    1        4.065   3.848  -3.489  0.00  0.00    +0.023 A 
ATOM     13  C   LIG    1        3.543   2.971  -2.543  0.00  0.00    +0.025 A 
ENDBRANCH   4   6
ENDBRANCH   1   3
BRANCH   1  14
ATOM     14  S   LIG    1        0.466  -0.104   0.006  0.00  0.00    -0.096 S 
BRANCH  14  15
ATOM     15  C   LIG    1       -0.262  -1.480   0.774  0.00  0.00    +0.103 A 
ATOM     16  N   LIG    1        0.518  -2.485   1.186  0.00  0.00    -0.229 NA
ATOM     17  C   LIG    1       -0.038  -3.541   1.771  0.00  0.00    +0.224 A 
ATOM     18  N   LIG    1       -1.343  -3.671   1.975  0.00  0.00    -0.217 NA
ATOM     19  C   LIG    1       -2.147  -2.674   1.568  0.00  0.00    +0.158 A 
ATOM     20  C   LIG    1       -1.636  -1.546   0.955  0.00  0.00    +0.083 A 
BRANCH  19  21
ATOM     21  N   LIG    1       -3.581  -2.793   1.778  0.00  0.00    -0.222 N 
ATOM     22  N   LIG    1       -4.491  -1.820   1.414  0.00  0.00    -0.173 NA
ATOM     23  C   LIG    1       -5.656  -2.290   1.759  0.00  0.00    +0.135 A 
ATOM     24  C   LIG    1       -5.537  -3.547   2.341  0.00  0.00    +0.041 A 
ATOM     25  C   LIG    1       -4.222  -3.854   2.347  0.00  0.00    +0.116 A 
ENDBRANCH  19  21
ENDBRANCH  14  15
ENDBRANCH   1  14
TORSDOF 5
