REMARK  Name = ZINC000049484531
REMARK                            x       y       z     vdW  Elec       q    Type
REMARK                         _______ _______ _______ _____ _____    ______ ____
ROOT
ATOM      1  N   LIG    1        9.979  -2.258  -0.590  0.00  0.00    -0.292 NA
ATOM      2  C   LIG    1        9.546  -3.574  -1.136  0.00  0.00    +0.099 C 
ATOM      3  C   LIG    1       10.367  -4.223   0.008  0.00  0.00    +0.106 C 
ATOM      4  C   LIG    1       10.321  -2.849   0.728  0.00  0.00    +0.099 C 
ENDROOT
BRANCH   3   5
ATOM      5  C   LIG    1       11.772  -4.595  -0.428  0.00  0.00    +0.233 A 
ATOM      6  O   LIG    1       12.515  -3.769  -1.144  0.00  0.00    -0.337 OA
ATOM      7  N   LIG    1       13.672  -4.351  -1.372  0.00  0.00    -0.056 NA
ATOM      8  C   LIG    1       13.594  -5.500  -0.791  0.00  0.00    +0.209 A 
ATOM      9  N   LIG    1       12.393  -5.675  -0.184  0.00  0.00    -0.191 NA
BRANCH   8  10
ATOM     10  C   LIG    1       14.667  -6.487  -0.788  0.00  0.00    +0.060 A 
ATOM     11  S   LIG    1       14.504  -8.015   0.026  0.00  0.00    -0.093 S 
ATOM     12  C   LIG    1       16.094  -8.489  -0.449  0.00  0.00    +0.046 A 
ATOM     13  C   LIG    1       16.710  -7.523  -1.192  0.00  0.00    +0.008 A 
ATOM     14  C   LIG    1       15.904  -6.391  -1.385  0.00  0.00    +0.019 A 
ENDBRANCH   8  10
ENDBRANCH   3   5
BRANCH   1  15
ATOM     15  C   LIG    1        8.942  -1.184  -0.576  0.00  0.00    +0.180 C 
BRANCH  15  18
ATOM     16  N   LIG    1        9.739  -0.647  -2.845  0.00  0.00    -0.284 N 
ATOM     17  H   LIG    1       10.612  -1.007  -2.432  0.00  0.00    +0.155 HD
ATOM     18  C   LIG    1        8.656  -0.741  -2.007  0.00  0.00    +0.231 C 
ATOM     19  O   LIG    1        7.532  -0.504  -2.399  0.00  0.00    -0.274 OA
BRANCH  16  25
ATOM     20  C   LIG    1        9.994   0.860  -8.361  0.00  0.00    +0.045 C 
ATOM     21  C   LIG    1        9.921   0.466  -6.897  0.00  0.00    -0.032 A 
ATOM     22  C   LIG    1       10.829  -0.456  -6.351  0.00  0.00    +0.046 A 
ATOM     23 CL   LIG    1       12.071  -1.174  -7.332  0.00  0.00    -0.083 Cl
ATOM     24  C   LIG    1       10.754  -0.816  -5.007  0.00  0.00    +0.043 A 
ATOM     25  C   LIG    1        9.764  -0.256  -4.205  0.00  0.00    +0.035 A 
ATOM     26  C   LIG    1        8.859   0.669  -4.729  0.00  0.00    +0.023 A 
ATOM     27  C   LIG    1        8.941   1.022  -6.073  0.00  0.00    +0.006 A 
ENDBRANCH  16  25
ENDBRANCH  15  18
ENDBRANCH   1  15
TORSDOF 5
