REMARK  Name = ZINC000009035748
REMARK                            x       y       z     vdW  Elec       q    Type
REMARK                         _______ _______ _______ _____ _____    ______ ____
ROOT
ATOM      1  C   LIG    1        3.227  -0.274   1.430  0.00  0.00    +0.218 C 
ATOM      2  N   LIG    1        4.569  -0.333   1.589  0.00  0.00    -0.297 N 
ATOM      3  C   LIG    1        5.376   0.776   1.019  0.00  0.00    +0.143 C 
ATOM      4  C   LIG    1        6.806   0.313   0.745  0.00  0.00    -0.025 A 
ATOM      5  C   LIG    1        7.728   1.256   0.294  0.00  0.00    +0.028 A 
ATOM      6  C   LIG    1        9.045   0.878   0.035  0.00  0.00    +0.034 A 
ATOM      7  C   LIG    1        9.450  -0.446   0.208  0.00  0.00    +0.023 A 
ATOM      8  C   LIG    1        8.531  -1.386   0.655  0.00  0.00    +0.006 A 
ATOM      9  C   LIG    1        7.213  -1.015   0.929  0.00  0.00    -0.041 A 
ATOM     10  C   LIG    1        6.227  -2.057   1.413  0.00  0.00    +0.054 C 
ATOM     11  C   LIG    1        5.289  -1.343   2.397  0.00  0.00    +0.113 C 
ATOM     12  O   LIG    1        2.714   0.685   0.857  0.00  0.00    -0.275 OA
ENDROOT
BRANCH   6  13
ATOM     13  N   LIG    1        9.928   1.879  -0.434  0.00  0.00    -0.283 N 
ATOM     14  H   LIG    1        9.529   2.620  -1.025  0.00  0.00    +0.155 HD
ATOM     15  C   LIG    1       11.277   1.988  -0.200  0.00  0.00    +0.255 C 
ATOM     16  O   LIG    1       11.861   1.176   0.489  0.00  0.00    -0.272 OA
BRANCH  15  17
ATOM     17  C   LIG    1       11.991   3.187  -0.796  0.00  0.00    +0.324 C 
BRANCH  17  18
ATOM     18  O   LIG    1       11.424   3.421  -2.129  0.00  0.00    -0.483 OA
BRANCH  18  19
ATOM     19  C   LIG    1       11.863   4.391  -3.005  0.00  0.00    +0.121 A 
ATOM     20  C   LIG    1       11.278   4.415  -4.269  0.00  0.00    +0.047 A 
ATOM     21  C   LIG    1       11.679   5.372  -5.195  0.00  0.00    +0.023 A 
ATOM     22  C   LIG    1       12.665   6.301  -4.853  0.00  0.00    +0.041 A 
ATOM     23 CL   LIG    1       13.165   7.491  -6.006  0.00  0.00    -0.084 Cl
ATOM     24  C   LIG    1       13.250   6.273  -3.584  0.00  0.00    +0.023 A 
ATOM     25  C   LIG    1       12.850   5.317  -2.655  0.00  0.00    +0.047 A 
ENDBRANCH  18  19
ENDBRANCH  17  18
ENDBRANCH  15  17
ENDBRANCH   6  13
BRANCH   1  27
ATOM     26  C   LIG    1        2.020  -1.184   3.502  0.00  0.00    +0.017 C 
ATOM     27  C   LIG    1        2.303  -1.382   2.000  0.00  0.00    +0.069 C 
ATOM     28  C   LIG    1        0.945  -1.462   1.276  0.00  0.00    +0.017 C 
ENDBRANCH   1  27
TORSDOF 5
