REMARK  Name = ZINC000049408232
REMARK                            x       y       z     vdW  Elec       q    Type
REMARK                         _______ _______ _______ _____ _____    ______ ____
ROOT
ATOM      1  N   LIG    1        5.271  -2.950  -1.114  0.00  0.00    -0.199 N 
ENDROOT
BRANCH   1   5
ATOM      2  C   LIG    1        3.000   0.748   1.327  0.00  0.00    +0.044 C 
ATOM      3  C   LIG    1        3.584   0.145   0.068  0.00  0.00    -0.049 A 
ATOM      4  C   LIG    1        4.173  -1.116   0.100  0.00  0.00    +0.028 A 
ATOM      5  C   LIG    1        4.712  -1.662  -1.072  0.00  0.00    +0.052 A 
ATOM      6  C   LIG    1        4.682  -0.941  -2.265  0.00  0.00    +0.025 A 
ATOM      7  C   LIG    1        4.098   0.319  -2.290  0.00  0.00    +0.002 A 
ATOM      8  C   LIG    1        3.550   0.861  -1.129  0.00  0.00    +0.003 A 
ENDBRANCH   1   5
BRANCH   1   9
ATOM      9  S   LIG    1        4.118  -4.141  -0.938  0.00  0.00    +0.076 S 
ATOM     10  O   LIG    1        3.562  -4.051   0.367  0.00  0.00    -0.150 OA
ATOM     11  O   LIG    1        4.694  -5.388  -1.293  0.00  0.00    -0.150 OA
BRANCH   9  12
ATOM     12  C   LIG    1        2.841  -3.722  -2.149  0.00  0.00    +0.125 A 
ATOM     13  C   LIG    1        1.790  -2.910  -1.809  0.00  0.00    +0.123 A 
ATOM     14  N   LIG    1        0.844  -2.590  -2.784  0.00  0.00    -0.287 N 
ATOM     15  C   LIG    1       -0.233  -1.813  -2.704  0.00  0.00    +0.229 A 
ATOM     16  N   LIG    1       -0.834  -1.786  -3.855  0.00  0.00    -0.137 NA
ATOM     17  N   LIG    1       -0.125  -2.572  -4.719  0.00  0.00    -0.130 NA
ATOM     18  C   LIG    1        0.897  -3.055  -4.050  0.00  0.00    +0.161 A 
ATOM     19  C   LIG    1        1.972  -3.919  -4.412  0.00  0.00    +0.050 A 
ATOM     20  C   LIG    1        2.922  -4.247  -3.486  0.00  0.00    +0.034 A 
ENDBRANCH   9  12
ENDBRANCH   1   9
BRANCH   1  21
ATOM     21  C   LIG    1        6.335  -3.233  -0.145  0.00  0.00    +0.169 C 
BRANCH  21  22
ATOM     22  C   LIG    1        7.485  -2.315  -0.520  0.00  0.00    +0.007 A 
ATOM     23  C   LIG    1        8.384  -2.666  -1.526  0.00  0.00    +0.128 A 
ATOM     24  F   LIG    1        8.241  -3.850  -2.173  0.00  0.00    -0.205 F 
ATOM     25  C   LIG    1        9.440  -1.846  -1.902  0.00  0.00    +0.038 A 
ATOM     26  C   LIG    1        9.609  -0.628  -1.253  0.00  0.00    +0.003 A 
ATOM     27  C   LIG    1        8.724  -0.251  -0.243  0.00  0.00    +0.000 A 
ATOM     28  C   LIG    1        7.668  -1.088   0.122  0.00  0.00    +0.008 A 
ENDBRANCH  21  22
ENDBRANCH   1  21
TORSDOF 5
