REMARK  Name = ZINC000049405405
REMARK                            x       y       z     vdW  Elec       q    Type
REMARK                         _______ _______ _______ _____ _____    ______ ____
ROOT
ATOM      1  S   LIG    1        4.286  -6.354  -6.618  0.00  0.00    -0.097 S 
ENDROOT
BRANCH   1   4
ATOM      2  C   LIG    1        2.901  -9.353  -8.901  0.00  0.00    +0.043 A 
ATOM      3  C   LIG    1        3.209  -8.544  -7.810  0.00  0.00    +0.048 A 
ATOM      4  C   LIG    1        3.885  -7.337  -8.000  0.00  0.00    +0.098 A 
ATOM      5  N   LIG    1        4.244  -6.920  -9.227  0.00  0.00    -0.249 NA
ATOM      6  C   LIG    1        3.951  -7.678 -10.285  0.00  0.00    +0.113 A 
ATOM      7  C   LIG    1        3.291  -8.891 -10.162  0.00  0.00    +0.033 A 
BRANCH   2  10
ATOM      8  C   LIG    1        1.264 -12.442  -8.958  0.00  0.00    +0.172 A 
ATOM      9  N   LIG    1        1.836 -11.453  -9.660  0.00  0.00    -0.192 NA
ATOM     10  C   LIG    1        2.209 -10.628  -8.748  0.00  0.00    +0.259 A 
ATOM     11  O   LIG    1        1.880 -11.083  -7.547  0.00  0.00    -0.333 OA
ATOM     12  N   LIG    1        1.278 -12.240  -7.695  0.00  0.00    -0.061 NA
BRANCH   8  14
ATOM     13  C   LIG    1       -0.756 -13.289 -10.072  0.00  0.00    +0.012 C 
ATOM     14  C   LIG    1        0.655 -13.670  -9.600  0.00  0.00    +0.076 C 
ENDBRANCH   8  14
ENDBRANCH   2  10
ENDBRANCH   1   4
BRANCH   1  15
ATOM     15  C   LIG    1        5.423  -5.044  -7.228  0.00  0.00    +0.171 C 
BRANCH  15  16
ATOM     16  C   LIG    1        6.794  -5.684  -7.346  0.00  0.00    +0.227 C 
ATOM     17  N   LIG    1        6.991  -6.504  -8.425  0.00  0.00    -0.285 N 
ATOM     18  H   LIG    1        6.139  -6.661  -8.991  0.00  0.00    +0.155 HD
ATOM     19  O   LIG    1        7.666  -5.509  -6.520  0.00  0.00    -0.275 OA
BRANCH  17  20
ATOM     20  C   LIG    1        8.125  -7.264  -8.789  0.00  0.00    +0.034 A 
ATOM     21  C   LIG    1        7.886  -8.359  -9.613  0.00  0.00    +0.034 A 
ATOM     22  C   LIG    1        8.945  -9.168 -10.046  0.00  0.00    +0.019 A 
ATOM     23  C   LIG    1       10.250  -8.848  -9.624  0.00  0.00    +0.011 A 
ATOM     24  C   LIG    1       10.481  -7.747  -8.802  0.00  0.00    +0.002 A 
ATOM     25  C   LIG    1        9.424  -6.948  -8.383  0.00  0.00    +0.023 A 
BRANCH  22  26
ATOM     26  C   LIG    1        8.673 -10.313 -10.918  0.00  0.00    +0.160 C 
ATOM     27  O   LIG    1        7.551 -10.542 -11.311  0.00  0.00    -0.292 OA
ATOM     28  C   LIG    1        9.764 -11.255 -11.376  0.00  0.00    +0.091 C 
ENDBRANCH  22  26
ENDBRANCH  17  20
ENDBRANCH  15  16
ENDBRANCH   1  15
TORSDOF 7
