REMARK  Name = ZINC000006087399
REMARK                            x       y       z     vdW  Elec       q    Type
REMARK                         _______ _______ _______ _____ _____    ______ ____
ROOT
ATOM      1  C   LIG    1        1.426  -3.310  -2.943  0.00  0.00    +0.214 C 
ENDROOT
BRANCH   1   7
ATOM      2  C   LIG    1        6.288  -4.188  -0.596  0.00  0.00    +0.010 C 
ATOM      3  C   LIG    1        5.522  -2.869  -0.344  0.00  0.00    +0.018 C 
ATOM      4  C   LIG    1        4.802  -2.337  -1.629  0.00  0.00    +0.115 C 
ATOM      5  C   LIG    1        3.823  -3.344  -2.237  0.00  0.00    +0.247 C 
ATOM      6  O   LIG    1        4.019  -4.443  -2.726  0.00  0.00    -0.273 OA
ATOM      7  N   LIG    1        2.584  -2.783  -2.217  0.00  0.00    -0.215 N 
ATOM      8  C   LIG    1        2.636  -1.527  -1.685  0.00  0.00    +0.310 C 
ATOM      9  O   LIG    1        1.699  -0.752  -1.617  0.00  0.00    -0.252 OA
ATOM     10  N   LIG    1        3.885  -1.265  -1.255  0.00  0.00    -0.285 N 
ATOM     11  H   LIG    1        4.173  -0.291  -1.116  0.00  0.00    +0.151 HD
ATOM     12  C   LIG    1        5.785  -1.823  -2.714  0.00  0.00    +0.035 C 
ATOM     13  C   LIG    1        6.717  -0.752  -2.110  0.00  0.00    +0.003 C 
ATOM     14  C   LIG    1        7.466  -1.275  -0.878  0.00  0.00    +0.000 C 
ATOM     15  C   LIG    1        6.483  -1.783   0.188  0.00  0.00    +0.006 C 
ENDBRANCH   1   7
BRANCH   1  16
ATOM     16  C   LIG    1        1.516  -2.876  -4.408  0.00  0.00    +0.238 C 
ATOM     17  N   LIG    1        0.471  -3.211  -5.250  0.00  0.00    -0.267 N 
ATOM     18  O   LIG    1        2.461  -2.248  -4.869  0.00  0.00    -0.274 OA
BRANCH  17  19
ATOM     19  C   LIG    1       -0.660  -3.920  -4.786  0.00  0.00    +0.010 C 
ATOM     20  C   LIG    1       -1.899  -3.077  -4.550  0.00  0.00    +0.051 C 
ATOM     21  C   LIG    1       -2.849  -3.886  -3.639  0.00  0.00    +0.006 C 
ATOM     22  C   LIG    1       -3.050  -5.274  -4.281  0.00  0.00    +0.004 C 
ATOM     23  C   LIG    1       -1.747  -6.085  -4.097  0.00  0.00    +0.029 C 
ATOM     24  C   LIG    1       -0.588  -5.251  -4.610  0.00  0.00    -0.008 C 
ENDBRANCH  17  19
BRANCH  17  25
ATOM     25  C   LIG    1        0.580  -2.950  -6.695  0.00  0.00    +0.187 C 
BRANCH  25  26
ATOM     26  C   LIG    1        1.260  -4.171  -7.283  0.00  0.00    +0.122 A 
ATOM     27  O   LIG    1        0.559  -5.047  -8.056  0.00  0.00    -0.466 OA
ATOM     28  C   LIG    1        1.414  -6.035  -8.424  0.00  0.00    +0.195 A 
ATOM     29  C   LIG    1        2.635  -5.794  -7.898  0.00  0.00    +0.041 A 
ATOM     30  C   LIG    1        2.537  -4.604  -7.170  0.00  0.00    +0.046 A 
ENDBRANCH  25  26
ENDBRANCH  17  25
ENDBRANCH   1  16
TORSDOF 5
