REMARK  Name = ZINC000049410085
REMARK                            x       y       z     vdW  Elec       q    Type
REMARK                         _______ _______ _______ _____ _____    ______ ____
ROOT
ATOM      1  C   LIG    1        4.584  -2.784   0.201  0.00  0.00    +0.247 C 
ATOM      2  N   LIG    1        4.303  -4.128   0.432  0.00  0.00    -0.297 N 
ATOM      3  C   LIG    1        4.926  -5.198  -0.364  0.00  0.00    +0.112 C 
ATOM      4  C   LIG    1        3.899  -5.523  -1.462  0.00  0.00    +0.064 C 
ATOM      5  C   LIG    1        2.568  -5.936  -0.806  0.00  0.00    +0.102 C 
ATOM      6  N   LIG    1        1.596  -6.129  -1.843  0.00  0.00    -0.290 N 
ATOM      7  H   LIG    1        1.217  -5.300  -2.308  0.00  0.00    +0.151 HD
ATOM      8  C   LIG    1        1.486  -7.288  -2.532  0.00  0.00    +0.247 C 
ATOM      9  O   LIG    1        0.871  -7.210  -3.586  0.00  0.00    -0.270 OA
ATOM     10  C   LIG    1        2.095  -8.489  -1.999  0.00  0.00    +0.058 A 
ATOM     11  C   LIG    1        2.091  -9.720  -2.672  0.00  0.00    +0.016 A 
ATOM     12  C   LIG    1        2.693 -10.835  -2.103  0.00  0.00    +0.021 A 
ATOM     13  C   LIG    1        3.305 -10.733  -0.846  0.00  0.00    +0.043 A 
ATOM     14 CL   LIG    1        4.054 -12.130  -0.142  0.00  0.00    -0.083 Cl
ATOM     15  C   LIG    1        3.317  -9.521  -0.160  0.00  0.00    +0.043 A 
ATOM     16  C   LIG    1        2.718  -8.407  -0.744  0.00  0.00    +0.042 A 
ATOM     17  N   LIG    1        2.722  -7.185  -0.072  0.00  0.00    -0.323 N 
ATOM     18  H   LIG    1        3.358  -7.115   0.730  0.00  0.00    +0.148 HD
ATOM     19  C   LIG    1        2.034  -4.844   0.132  0.00  0.00    +0.064 C 
ATOM     20  C   LIG    1        3.101  -4.520   1.191  0.00  0.00    +0.112 C 
ATOM     21  O   LIG    1        3.720  -1.966   0.500  0.00  0.00    -0.270 OA
ENDROOT
BRANCH   1  25
ATOM     22  C   LIG    1        7.068  -0.256  -3.330  0.00  0.00    +0.044 C 
ATOM     23  C   LIG    1        7.065  -1.170  -2.124  0.00  0.00    -0.049 A 
ATOM     24  C   LIG    1        5.865  -1.540  -1.524  0.00  0.00    +0.016 A 
ATOM     25  C   LIG    1        5.855  -2.380  -0.405  0.00  0.00    +0.037 A 
ATOM     26  C   LIG    1        7.076  -2.821   0.124  0.00  0.00    +0.016 A 
ATOM     27  C   LIG    1        8.280  -2.456  -0.469  0.00  0.00    -0.049 A 
ATOM     28  C   LIG    1        9.596  -2.930   0.109  0.00  0.00    +0.044 C 
ATOM     29  C   LIG    1        8.268  -1.629  -1.591  0.00  0.00    +0.006 A 
ENDBRANCH   1  25
TORSDOF 1
