REMARK  Name = ZINC000006083858
REMARK                            x       y       z     vdW  Elec       q    Type
REMARK                         _______ _______ _______ _____ _____    ______ ____
ROOT
ATOM      1  C   LIG    1        9.043  -3.947   2.283  0.00  0.00    +0.257 A 
ATOM      2  C   LIG    1        9.204  -5.131   1.451  0.00  0.00    +0.185 A 
ATOM      3  N   LIG    1       10.343  -5.431   0.877  0.00  0.00    -0.225 NA
ATOM      4  C   LIG    1       11.386  -4.569   1.124  0.00  0.00    +0.092 A 
ATOM      5  C   LIG    1       12.646  -4.828   0.548  0.00  0.00    +0.030 A 
ATOM      6  C   LIG    1       13.713  -3.982   0.776  0.00  0.00    +0.002 A 
ATOM      7  C   LIG    1       13.556  -2.848   1.592  0.00  0.00    +0.002 A 
ATOM      8  C   LIG    1       12.333  -2.573   2.169  0.00  0.00    +0.030 A 
ATOM      9  C   LIG    1       11.228  -3.417   1.945  0.00  0.00    +0.093 A 
ATOM     10  N   LIG    1       10.012  -3.104   2.524  0.00  0.00    -0.208 NA
ENDROOT
BRANCH   2  11
ATOM     11  N   LIG    1        8.118  -5.979   1.192  0.00  0.00    -0.311 N 
ATOM     12  C   LIG    1        7.182  -5.382   0.214  0.00  0.00    +0.131 C 
BRANCH  11  13
ATOM     13  C   LIG    1        8.397  -7.445   1.078  0.00  0.00    +0.075 C 
ATOM     14  C   LIG    1        7.088  -8.265   0.886  0.00  0.00    +0.022 C 
ATOM     15  C   LIG    1        6.158  -8.107   2.108  0.00  0.00    +0.002 C 
ATOM     16  C   LIG    1        6.850  -8.572   3.394  0.00  0.00    +0.000 C 
ATOM     17  C   LIG    1        8.154  -7.792   3.590  0.00  0.00    +0.002 C 
ATOM     18  C   LIG    1        9.086  -7.965   2.374  0.00  0.00    +0.022 C 
ENDBRANCH  11  13
ENDBRANCH   2  11
BRANCH   1  19
ATOM     19  O   LIG    1        7.809  -3.679   2.838  0.00  0.00    -0.465 OA
BRANCH  19  20
ATOM     20  C   LIG    1        7.434  -2.411   3.479  0.00  0.00    +0.326 C 
BRANCH  20  23
ATOM     21  N   LIG    1        8.089  -1.070   1.557  0.00  0.00    -0.310 N 
ATOM     22  H   LIG    1        8.987  -1.505   1.722  0.00  0.00    +0.149 HD
ATOM     23  C   LIG    1        7.094  -1.428   2.370  0.00  0.00    +0.251 C 
ATOM     24  O   LIG    1        5.956  -0.999   2.209  0.00  0.00    -0.272 OA
BRANCH  21  25
ATOM     25  C   LIG    1        7.977  -0.185   0.415  0.00  0.00    +0.073 C 
ATOM     26  C   LIG    1        8.041  -1.047  -0.846  0.00  0.00    +0.028 C 
BRANCH  25  28
ATOM     27  C   LIG    1        8.851   1.851   1.661  0.00  0.00    +0.009 C 
ATOM     28  C   LIG    1        9.072   0.909   0.465  0.00  0.00    +0.003 C 
ATOM     29  C   LIG    1       10.516   0.372   0.523  0.00  0.00    +0.009 C 
ENDBRANCH  25  28
ENDBRANCH  21  25
ENDBRANCH  20  23
ENDBRANCH  19  20
ENDBRANCH   1  19
TORSDOF 7
