REMARK  Name = ZINC000000623420
REMARK                            x       y       z     vdW  Elec       q    Type
REMARK                         _______ _______ _______ _____ _____    ______ ____
ROOT
ATOM      1  C   LIG    1        3.558   1.093  -3.110  0.00  0.00    +0.102 A 
ATOM      2  C   LIG    1        4.067   1.758  -4.217  0.00  0.00    -0.014 A 
ATOM      3  C   LIG    1        4.664   1.041  -5.422  0.00  0.00    +0.046 C 
ATOM      4  C   LIG    1        3.979   3.176  -4.119  0.00  0.00    +0.091 A 
ATOM      5  C   LIG    1        3.353   3.552  -2.933  0.00  0.00    +0.087 A 
ATOM      6  S   LIG    1        2.898   2.214  -1.955  0.00  0.00    -0.066 S 
ENDROOT
BRANCH   5   7
ATOM      7  N   LIG    1        3.073   4.878  -2.546  0.00  0.00    -0.275 N 
ATOM      8  H   LIG    1        3.125   5.583  -3.297  0.00  0.00    +0.156 HD
ATOM      9  C   LIG    1        2.768   5.391  -1.298  0.00  0.00    +0.249 C 
ATOM     10  O   LIG    1        2.764   4.658  -0.321  0.00  0.00    -0.270 OA
BRANCH   9  11
ATOM     11  C   LIG    1        2.488   6.828  -1.243  0.00  0.00    +0.040 A 
ATOM     12  C   LIG    1        1.336   7.337  -0.610  0.00  0.00    -0.038 A 
ATOM     13  C   LIG    1        0.332   6.416   0.064  0.00  0.00    +0.044 C 
ATOM     14  C   LIG    1        1.107   8.712  -0.595  0.00  0.00    +0.004 A 
ATOM     15  C   LIG    1        2.003   9.586  -1.203  0.00  0.00    +0.000 A 
ATOM     16  C   LIG    1        3.142   9.093  -1.827  0.00  0.00    +0.001 A 
ATOM     17  C   LIG    1        3.385   7.725  -1.845  0.00  0.00    +0.013 A 
ENDBRANCH   9  11
ENDBRANCH   5   7
BRANCH   1  18
ATOM     18  C   LIG    1        3.523  -0.328  -2.801  0.00  0.00    +0.346 C 
ATOM     19  O   LIG    1        4.110  -1.208  -3.422  0.00  0.00    -0.244 OA
BRANCH  18  20
ATOM     20  O   LIG    1        2.788  -0.723  -1.731  0.00  0.00    -0.461 OA
BRANCH  20  22
ATOM     21  C   LIG    1        1.772  -2.098  -0.115  0.00  0.00    +0.048 C 
ATOM     22  C   LIG    1        2.700  -2.107  -1.328  0.00  0.00    +0.229 C 
ENDBRANCH  20  22
ENDBRANCH  18  20
ENDBRANCH   1  18
BRANCH   4  23
ATOM     23  C   LIG    1        4.484   4.129  -5.099  0.00  0.00    +0.342 C 
ATOM     24  O   LIG    1        5.266   3.866  -6.006  0.00  0.00    -0.245 OA
BRANCH  23  25
ATOM     25  O   LIG    1        4.075   5.434  -5.027  0.00  0.00    -0.461 OA
BRANCH  25  26
ATOM     26  C   LIG    1        4.462   6.460  -5.982  0.00  0.00    +0.229 C 
ATOM     27  C   LIG    1        3.395   6.414  -7.076  0.00  0.00    +0.048 C 
ENDBRANCH  25  26
ENDBRANCH  23  25
ENDBRANCH   4  23
TORSDOF 8
