REMARK  Name = ZINC000006087402
REMARK                            x       y       z     vdW  Elec       q    Type
REMARK                         _______ _______ _______ _____ _____    ______ ____
ROOT
ATOM      1  C   LIG    1        1.528  -3.268  -2.569  0.00  0.00    +0.214 C 
ENDROOT
BRANCH   1   7
ATOM      2  C   LIG    1        7.050  -1.449  -2.789  0.00  0.00    +0.010 C 
ATOM      3  C   LIG    1        6.108  -2.674  -2.698  0.00  0.00    +0.018 C 
ATOM      4  C   LIG    1        5.062  -2.533  -1.541  0.00  0.00    +0.115 C 
ATOM      5  C   LIG    1        3.882  -3.491  -1.745  0.00  0.00    +0.247 C 
ATOM      6  O   LIG    1        3.822  -4.707  -1.689  0.00  0.00    -0.273 OA
ATOM      7  N   LIG    1        2.787  -2.740  -2.035  0.00  0.00    -0.215 N 
ATOM      8  C   LIG    1        3.102  -1.411  -2.022  0.00  0.00    +0.310 C 
ATOM      9  O   LIG    1        2.347  -0.506  -2.329  0.00  0.00    -0.252 OA
ATOM     10  N   LIG    1        4.382  -1.248  -1.636  0.00  0.00    -0.285 N 
ATOM     11  H   LIG    1        4.859  -0.370  -1.866  0.00  0.00    +0.151 HD
ATOM     12  C   LIG    1        5.689  -2.644  -0.126  0.00  0.00    +0.035 C 
ATOM     13  C   LIG    1        6.490  -3.954  -0.009  0.00  0.00    +0.003 C 
ATOM     14  C   LIG    1        7.557  -4.075  -1.104  0.00  0.00    +0.000 C 
ATOM     15  C   LIG    1        6.922  -3.970  -2.499  0.00  0.00    +0.006 C 
ENDBRANCH   1   7
BRANCH   1  16
ATOM     16  C   LIG    1        1.601  -3.223  -4.097  0.00  0.00    +0.238 C 
ATOM     17  N   LIG    1        0.425  -3.119  -4.825  0.00  0.00    -0.267 N 
ATOM     18  O   LIG    1        2.663  -3.280  -4.705  0.00  0.00    -0.274 OA
BRANCH  17  19
ATOM     19  C   LIG    1       -0.855  -3.222  -4.220  0.00  0.00    +0.010 C 
ATOM     20  C   LIG    1       -1.765  -2.018  -4.397  0.00  0.00    +0.051 C 
ATOM     21  C   LIG    1       -2.877  -2.104  -3.330  0.00  0.00    +0.006 C 
ATOM     22  C   LIG    1       -3.531  -3.496  -3.448  0.00  0.00    +0.004 C 
ATOM     23  C   LIG    1       -2.541  -4.540  -2.885  0.00  0.00    +0.029 C 
ATOM     24  C   LIG    1       -1.202  -4.351  -3.573  0.00  0.00    -0.008 C 
ENDBRANCH  17  19
BRANCH  17  25
ATOM     25  C   LIG    1        0.495  -3.006  -6.296  0.00  0.00    +0.187 C 
BRANCH  25  26
ATOM     26  C   LIG    1        0.330  -4.417  -6.822  0.00  0.00    +0.122 A 
ATOM     27  O   LIG    1       -0.832  -4.802  -7.419  0.00  0.00    -0.466 OA
ATOM     28  C   LIG    1       -0.692  -6.105  -7.772  0.00  0.00    +0.195 A 
ATOM     29  C   LIG    1        0.534  -6.542  -7.409  0.00  0.00    +0.041 A 
ATOM     30  C   LIG    1        1.187  -5.465  -6.802  0.00  0.00    +0.046 A 
ENDBRANCH  25  26
ENDBRANCH  17  25
ENDBRANCH   1  16
TORSDOF 5
