REMARK  Name = ZINC000049409419
REMARK                            x       y       z     vdW  Elec       q    Type
REMARK                         _______ _______ _______ _____ _____    ______ ____
ROOT
ATOM      1  N   LIG    1        4.757   1.959  -5.075  0.00  0.00    -0.282 N 
ATOM      2  H   LIG    1        5.079   2.926  -5.250  0.00  0.00    +0.155 HD
ATOM      3  C   LIG    1        5.196   1.013  -5.967  0.00  0.00    +0.226 C 
ATOM      4  O   LIG    1        5.020  -0.169  -5.764  0.00  0.00    -0.275 OA
ENDROOT
BRANCH   1   9
ATOM      5  C   LIG    1        2.631   1.728  -1.451  0.00  0.00    +0.142 A 
ATOM      6  C   LIG    1        2.660   0.597  -2.286  0.00  0.00    +0.084 A 
ATOM      7 CL   LIG    1        1.838  -0.862  -1.840  0.00  0.00    -0.080 Cl
ATOM      8  C   LIG    1        3.355   0.641  -3.495  0.00  0.00    +0.050 A 
ATOM      9  C   LIG    1        4.022   1.813  -3.862  0.00  0.00    +0.077 A 
ATOM     10  C   LIG    1        3.979   2.943  -3.029  0.00  0.00    +0.145 A 
ATOM     11  C   LIG    1        3.287   2.904  -1.819  0.00  0.00    +0.094 A 
BRANCH   5  13
ATOM     12  C   LIG    1        1.809   2.695   0.735  0.00  0.00    +0.277 C 
ATOM     13  O   LIG    1        1.929   1.647  -0.252  0.00  0.00    -0.494 OA
ENDBRANCH   5  13
BRANCH  10  14
ATOM     14  O   LIG    1        4.640   4.098  -3.454  0.00  0.00    -0.493 OA
ATOM     15  C   LIG    1        4.803   5.304  -2.673  0.00  0.00    +0.277 C 
ENDBRANCH  10  14
ENDBRANCH   1   9
BRANCH   3  16
ATOM     16  C   LIG    1        5.923   1.502  -7.192  0.00  0.00    +0.193 C 
BRANCH  16  17
ATOM     17  C   LIG    1        7.245   2.002  -6.678  0.00  0.00    +0.226 A 
ATOM     18  O   LIG    1        8.273   1.207  -6.593  0.00  0.00    -0.419 OA
ATOM     19  C   LIG    1        9.250   1.940  -6.102  0.00  0.00    +0.255 A 
ATOM     20  N   LIG    1        8.834   3.149  -5.890  0.00  0.00    -0.107 NA
ATOM     21  N   LIG    1        7.522   3.181  -6.268  0.00  0.00    -0.112 NA
BRANCH  19  22
ATOM     22  C   LIG    1       10.565   1.359  -5.877  0.00  0.00    +0.079 A 
ATOM     23  C   LIG    1       11.714   1.960  -5.392  0.00  0.00    -0.031 A 
ATOM     24  C   LIG    1       11.814   3.415  -4.983  0.00  0.00    +0.045 C 
ATOM     25  C   LIG    1       12.801   1.076  -5.314  0.00  0.00    +0.012 A 
ATOM     26  C   LIG    1       12.497  -0.188  -5.731  0.00  0.00    +0.046 A 
ATOM     27  S   LIG    1       10.855  -0.317  -6.233  0.00  0.00    -0.092 S 
ENDBRANCH  19  22
ENDBRANCH  16  17
ENDBRANCH   3  16
TORSDOF 6
