REMARK  Name = ZINC000006082796
REMARK                            x       y       z     vdW  Elec       q    Type
REMARK                         _______ _______ _______ _____ _____    ______ ____
ROOT
ATOM      1  N   LIG    1        4.699   2.021  -0.442  0.00  0.00    -0.306 N 
ENDROOT
BRANCH   1   2
ATOM      2  C   LIG    1        5.993   1.933   0.048  0.00  0.00    +0.133 A 
ATOM      3  C   LIG    1        6.784   0.765  -0.073  0.00  0.00    +0.051 A 
ATOM      4  C   LIG    1        6.565  -0.501  -0.699  0.00  0.00    -0.025 A 
ATOM      5  C   LIG    1        5.317  -0.891  -1.472  0.00  0.00    +0.037 C 
ATOM      6  C   LIG    1        5.617  -2.159  -2.291  0.00  0.00    +0.005 C 
ATOM      7  C   LIG    1        6.319  -3.229  -1.439  0.00  0.00    +0.005 C 
ATOM      8  C   LIG    1        7.733  -2.771  -1.045  0.00  0.00    +0.043 C 
ATOM      9  C   LIG    1        7.614  -1.356  -0.520  0.00  0.00    -0.004 A 
ATOM     10  S   LIG    1        8.914  -0.644   0.379  0.00  0.00    -0.073 S 
ATOM     11  C   LIG    1        8.031   0.835   0.527  0.00  0.00    +0.114 A 
ATOM     12  N   LIG    1        8.497   1.947   1.145  0.00  0.00    -0.228 NA
ATOM     13  C   LIG    1        7.702   2.988   1.171  0.00  0.00    +0.224 A 
ATOM     14  N   LIG    1        6.459   3.017   0.638  0.00  0.00    -0.220 NA
ENDBRANCH   1   2
BRANCH   1  16
ATOM     15  C   LIG    1        3.288   0.873   1.113  0.00  0.00    +0.024 C 
ATOM     16  C   LIG    1        3.668   2.262   0.594  0.00  0.00    +0.104 C 
ENDBRANCH   1  16
BRANCH   1  17
ATOM     17  C   LIG    1        4.604   3.000  -1.587  0.00  0.00    +0.202 C 
BRANCH  17  18
ATOM     18  C   LIG    1        3.333   2.765  -2.412  0.00  0.00    +0.231 C 
ATOM     19  N   LIG    1        2.896   1.512  -2.513  0.00  0.00    -0.309 N 
ATOM     20  H   LIG    1        3.360   0.834  -1.927  0.00  0.00    +0.149 HD
ATOM     21  O   LIG    1        2.723   3.681  -2.955  0.00  0.00    -0.274 OA
BRANCH  19  22
ATOM     22  C   LIG    1        1.682   1.137  -3.208  0.00  0.00    +0.146 C 
BRANCH  22  23
ATOM     23  C   LIG    1        1.764  -0.370  -3.270  0.00  0.00    +0.007 A 
ATOM     24  S   LIG    1        1.410  -1.337  -1.878  0.00  0.00    -0.100 S 
ATOM     25  C   LIG    1        1.726  -2.786  -2.765  0.00  0.00    +0.045 A 
ATOM     26  C   LIG    1        2.087  -2.522  -4.054  0.00  0.00    +0.008 A 
ATOM     27  C   LIG    1        2.111  -1.146  -4.341  0.00  0.00    +0.013 A 
ENDBRANCH  22  23
ENDBRANCH  19  22
ENDBRANCH  17  18
ENDBRANCH   1  17
TORSDOF 6
