MODEL 1
REMARK VINA RESULT:      -7.8      0.000      0.000
REMARK  Name = ligand.pdb
REMARK  7 active torsions:
REMARK  status: ('A' for Active; 'I' for Inactive)
REMARK    1  A    between atoms: C1_1  and  C6_8
REMARK    2  A    between atoms: C2_3  and  C3_5
REMARK    3  A    between atoms: C2_3  and  C11_13
REMARK    4  A    between atoms: C3_5  and  C4_6
REMARK    5  A    between atoms: C3_5  and  C5_7
REMARK    6  A    between atoms: C6_8  and  C7_9
REMARK    7  A    between atoms: C6_8  and  C8_10
REMARK                            x       y       z     vdW  Elec       q    Type
REMARK                         _______ _______ _______ _____ _____    ______ ____
ROOT
ATOM      1  C8  IBP A 701      26.508  33.097 202.382  0.00  0.00    +0.000 A 
ATOM      2  C9  IBP A 701      27.150  33.536 201.200  0.00  0.00    +0.000 A 
ATOM      3  C10 IBP A 701      26.435  34.221 200.186  0.00  0.00    +0.000 A 
ATOM      4  C11 IBP A 701      25.047  34.494 200.312  0.00  0.00    +0.000 A 
ATOM      5  C12 IBP A 701      24.407  34.057 201.490  0.00  0.00    +0.000 A 
ATOM      6  C13 IBP A 701      25.122  33.372 202.507  0.00  0.00    +0.000 A 
ENDROOT
BRANCH   1   7
ATOM      7  C6  IBP A 701      27.309  32.340 203.469  0.00  0.00    +0.000 C 
ATOM      8  C7  IBP A 701      28.641  33.008 203.823  0.00  0.00    +0.000 C 
BRANCH   7   9
ATOM      9  C1  IBP A 701      27.518  30.906 203.007  0.00  0.00    +0.000 C 
ATOM     10  O1  IBP A 701      26.448  30.159 203.086  0.00  0.00    +0.000 OA
ATOM     11  O2  IBP A 701      28.593  30.466 202.615  0.00  0.00    +0.000 OA
ENDBRANCH   7   9
ENDBRANCH   1   7
BRANCH   4  12
ATOM     12  C2  IBP A 701      24.287  35.223 199.210  0.00  0.00    +0.000 C 
BRANCH  12  13
ATOM     13  C3  IBP A 701      24.887  35.086 197.804  0.00  0.00    +0.000 C 
ATOM     14  C4  IBP A 701      25.598  36.375 197.412  0.00  0.00    +0.000 C 
ATOM     15  C5  IBP A 701      23.820  34.771 196.780  0.00  0.00    +0.000 C 
ENDBRANCH  12  13
ENDBRANCH   4  12
TORSDOF 4
ENDMDL
MODEL 2
REMARK VINA RESULT:      -7.5      3.215      6.351
REMARK  Name = ligand.pdb
REMARK  7 active torsions:
REMARK  status: ('A' for Active; 'I' for Inactive)
REMARK    1  A    between atoms: C1_1  and  C6_8
REMARK    2  A    between atoms: C2_3  and  C3_5
REMARK    3  A    between atoms: C2_3  and  C11_13
REMARK    4  A    between atoms: C3_5  and  C4_6
REMARK    5  A    between atoms: C3_5  and  C5_7
REMARK    6  A    between atoms: C6_8  and  C7_9
REMARK    7  A    between atoms: C6_8  and  C8_10
REMARK                            x       y       z     vdW  Elec       q    Type
REMARK                         _______ _______ _______ _____ _____    ______ ____
ROOT
ATOM      1  C8  IBP A 701      25.002  35.032 199.184  0.00  0.00    +0.000 A 
ATOM      2  C9  IBP A 701      24.099  34.995 200.273  0.00  0.00    +0.000 A 
ATOM      3  C10 IBP A 701      24.455  34.391 201.505  0.00  0.00    +0.000 A 
ATOM      4  C11 IBP A 701      25.731  33.799 201.698  0.00  0.00    +0.000 A 
ATOM      5  C12 IBP A 701      26.632  33.837 200.615  0.00  0.00    +0.000 A 
ATOM      6  C13 IBP A 701      26.277  34.441 199.380  0.00  0.00    +0.000 A 
ENDROOT
BRANCH   1   7
ATOM      7  C6  IBP A 701      24.584  35.686 197.846  0.00  0.00    +0.000 C 
ATOM      8  C7  IBP A 701      23.810  34.743 196.920  0.00  0.00    +0.000 C 
BRANCH   7   9
ATOM      9  C1  IBP A 701      25.829  36.229 197.161  0.00  0.00    +0.000 C 
ATOM     10  O1  IBP A 701      26.282  35.470 196.198  0.00  0.00    +0.000 OA
ATOM     11  O2  IBP A 701      26.384  37.274 197.485  0.00  0.00    +0.000 OA
ENDBRANCH   7   9
ENDBRANCH   1   7
BRANCH   4  12
ATOM     12  C2  IBP A 701      26.099  33.144 203.025  0.00  0.00    +0.000 C 
BRANCH  12  13
ATOM     13  C3  IBP A 701      27.458  32.433 203.047  0.00  0.00    +0.000 C 
ATOM     14  C4  IBP A 701      27.258  30.923 203.038  0.00  0.00    +0.000 C 
ATOM     15  C5  IBP A 701      28.263  32.826 204.266  0.00  0.00    +0.000 C 
ENDBRANCH  12  13
ENDBRANCH   4  12
TORSDOF 4
ENDMDL
MODEL 3
REMARK VINA RESULT:      -7.4     21.775     23.007
REMARK  Name = ligand.pdb
REMARK  7 active torsions:
REMARK  status: ('A' for Active; 'I' for Inactive)
REMARK    1  A    between atoms: C1_1  and  C6_8
REMARK    2  A    between atoms: C2_3  and  C3_5
REMARK    3  A    between atoms: C2_3  and  C11_13
REMARK    4  A    between atoms: C3_5  and  C4_6
REMARK    5  A    between atoms: C3_5  and  C5_7
REMARK    6  A    between atoms: C6_8  and  C7_9
REMARK    7  A    between atoms: C6_8  and  C8_10
REMARK                            x       y       z     vdW  Elec       q    Type
REMARK                         _______ _______ _______ _____ _____    ______ ____
ROOT
ATOM      1  C8  IBP A 701      27.063  17.054 187.005  0.00  0.00    +0.000 A 
ATOM      2  C9  IBP A 701      28.365  16.651 186.628  0.00  0.00    +0.000 A 
ATOM      3  C10 IBP A 701      28.802  16.739 185.282  0.00  0.00    +0.000 A 
ATOM      4  C11 IBP A 701      27.953  17.236 184.258  0.00  0.00    +0.000 A 
ATOM      5  C12 IBP A 701      26.656  17.640 184.634  0.00  0.00    +0.000 A 
ATOM      6  C13 IBP A 701      26.217  17.552 185.981  0.00  0.00    +0.000 A 
ENDROOT
BRANCH   1   7
ATOM      7  C6  IBP A 701      26.606  16.936 188.479  0.00  0.00    +0.000 C 
ATOM      8  C7  IBP A 701      27.736  17.153 189.489  0.00  0.00    +0.000 C 
BRANCH   7   9
ATOM      9  C1  IBP A 701      25.945  15.579 188.675  0.00  0.00    +0.000 C 
ATOM     10  O1  IBP A 701      26.066  15.098 189.884  0.00  0.00    +0.000 OA
ATOM     11  O2  IBP A 701      25.367  14.968 187.783  0.00  0.00    +0.000 OA
ENDBRANCH   7   9
ENDBRANCH   1   7
BRANCH   4  12
ATOM     12  C2  IBP A 701      28.433  17.317 182.813  0.00  0.00    +0.000 C 
BRANCH  12  13
ATOM     13  C3  IBP A 701      27.709  16.385 181.833  0.00  0.00    +0.000 C 
ATOM     14  C4  IBP A 701      28.058  14.934 182.138  0.00  0.00    +0.000 C 
ATOM     15  C5  IBP A 701      28.081  16.699 180.401  0.00  0.00    +0.000 C 
ENDBRANCH  12  13
ENDBRANCH   4  12
TORSDOF 4
ENDMDL
MODEL 4
REMARK VINA RESULT:      -7.0     22.290     23.899
REMARK  Name = ligand.pdb
REMARK  7 active torsions:
REMARK  status: ('A' for Active; 'I' for Inactive)
REMARK    1  A    between atoms: C1_1  and  C6_8
REMARK    2  A    between atoms: C2_3  and  C3_5
REMARK    3  A    between atoms: C2_3  and  C11_13
REMARK    4  A    between atoms: C3_5  and  C4_6
REMARK    5  A    between atoms: C3_5  and  C5_7
REMARK    6  A    between atoms: C6_8  and  C7_9
REMARK    7  A    between atoms: C6_8  and  C8_10
REMARK                            x       y       z     vdW  Elec       q    Type
REMARK                         _______ _______ _______ _____ _____    ______ ____
ROOT
ATOM      1  C8  IBP A 701      28.350  17.191 183.543  0.00  0.00    +0.000 A 
ATOM      2  C9  IBP A 701      26.964  17.388 183.749  0.00  0.00    +0.000 A 
ATOM      3  C10 IBP A 701      26.420  17.477 185.055  0.00  0.00    +0.000 A 
ATOM      4  C11 IBP A 701      27.241  17.372 186.209  0.00  0.00    +0.000 A 
ATOM      5  C12 IBP A 701      28.622  17.177 186.004  0.00  0.00    +0.000 A 
ATOM      6  C13 IBP A 701      29.169  17.088 184.696  0.00  0.00    +0.000 A 
ENDROOT
BRANCH   1   7
ATOM      7  C6  IBP A 701      28.918  17.084 182.107  0.00  0.00    +0.000 C 
ATOM      8  C7  IBP A 701      27.878  16.653 181.069  0.00  0.00    +0.000 C 
BRANCH   7   9
ATOM      9  C1  IBP A 701      30.105  16.134 182.123  0.00  0.00    +0.000 C 
ATOM     10  O1  IBP A 701      29.793  14.896 182.402  0.00  0.00    +0.000 OA
ATOM     11  O2  IBP A 701      31.262  16.485 181.918  0.00  0.00    +0.000 OA
ENDBRANCH   7   9
ENDBRANCH   1   7
BRANCH   4  12
ATOM     12  C2  IBP A 701      26.642  17.460 187.608  0.00  0.00    +0.000 C 
BRANCH  12  13
ATOM     13  C3  IBP A 701      26.977  16.285 188.536  0.00  0.00    +0.000 C 
ATOM     14  C4  IBP A 701      25.777  15.354 188.652  0.00  0.00    +0.000 C 
ATOM     15  C5  IBP A 701      27.372  16.769 189.913  0.00  0.00    +0.000 C 
ENDBRANCH  12  13
ENDBRANCH   4  12
TORSDOF 4
ENDMDL
MODEL 5
REMARK VINA RESULT:      -6.8     22.647     24.172
REMARK  Name = ligand.pdb
REMARK  7 active torsions:
REMARK  status: ('A' for Active; 'I' for Inactive)
REMARK    1  A    between atoms: C1_1  and  C6_8
REMARK    2  A    between atoms: C2_3  and  C3_5
REMARK    3  A    between atoms: C2_3  and  C11_13
REMARK    4  A    between atoms: C3_5  and  C4_6
REMARK    5  A    between atoms: C3_5  and  C5_7
REMARK    6  A    between atoms: C6_8  and  C7_9
REMARK    7  A    between atoms: C6_8  and  C8_10
REMARK                            x       y       z     vdW  Elec       q    Type
REMARK                         _______ _______ _______ _____ _____    ______ ____
ROOT
ATOM      1  C8  IBP A 701      28.302  16.463 183.487  0.00  0.00    +0.000 A 
ATOM      2  C9  IBP A 701      29.043  16.610 184.683  0.00  0.00    +0.000 A 
ATOM      3  C10 IBP A 701      28.435  17.084 185.872  0.00  0.00    +0.000 A 
ATOM      4  C11 IBP A 701      27.059  17.431 185.914  0.00  0.00    +0.000 A 
ATOM      5  C12 IBP A 701      26.319  17.283 184.723  0.00  0.00    +0.000 A 
ATOM      6  C13 IBP A 701      26.927  16.808 183.531  0.00  0.00    +0.000 A 
ENDROOT
BRANCH   1   7
ATOM      7  C6  IBP A 701      28.992  15.956 182.198  0.00  0.00    +0.000 C 
ATOM      8  C7  IBP A 701      30.380  16.561 181.969  0.00  0.00    +0.000 C 
BRANCH   7   9
ATOM      9  C1  IBP A 701      28.072  16.225 181.017  0.00  0.00    +0.000 C 
ATOM     10  O1  IBP A 701      27.546  15.148 180.495  0.00  0.00    +0.000 OA
ATOM     11  O2  IBP A 701      27.851  17.343 180.566  0.00  0.00    +0.000 OA
ENDBRANCH   7   9
ENDBRANCH   1   7
BRANCH   4  12
ATOM     12  C2  IBP A 701      26.419  17.948 187.198  0.00  0.00    +0.000 C 
BRANCH  12  13
ATOM     13  C3  IBP A 701      26.102  16.874 188.247  0.00  0.00    +0.000 C 
ATOM     14  C4  IBP A 701      27.259  16.745 189.229  0.00  0.00    +0.000 C 
ATOM     15  C5  IBP A 701      25.843  15.533 187.598  0.00  0.00    +0.000 C 
ENDBRANCH  12  13
ENDBRANCH   4  12
TORSDOF 4
ENDMDL
MODEL 6
REMARK VINA RESULT:      -6.4     23.423     24.870
REMARK  Name = ligand.pdb
REMARK  7 active torsions:
REMARK  status: ('A' for Active; 'I' for Inactive)
REMARK    1  A    between atoms: C1_1  and  C6_8
REMARK    2  A    between atoms: C2_3  and  C3_5
REMARK    3  A    between atoms: C2_3  and  C11_13
REMARK    4  A    between atoms: C3_5  and  C4_6
REMARK    5  A    between atoms: C3_5  and  C5_7
REMARK    6  A    between atoms: C6_8  and  C7_9
REMARK    7  A    between atoms: C6_8  and  C8_10
REMARK                            x       y       z     vdW  Elec       q    Type
REMARK                         _______ _______ _______ _____ _____    ______ ____
ROOT
ATOM      1  C8  IBP A 701      29.330  17.322 183.964  0.00  0.00    +0.000 A 
ATOM      2  C9  IBP A 701      28.009  17.287 183.459  0.00  0.00    +0.000 A 
ATOM      3  C10 IBP A 701      27.745  16.929 182.112  0.00  0.00    +0.000 A 
ATOM      4  C11 IBP A 701      28.793  16.591 181.216  0.00  0.00    +0.000 A 
ATOM      5  C12 IBP A 701      30.110  16.624 181.719  0.00  0.00    +0.000 A 
ATOM      6  C13 IBP A 701      30.376  16.982 183.068  0.00  0.00    +0.000 A 
ENDROOT
BRANCH   1   7
ATOM      7  C6  IBP A 701      29.593  17.728 185.434  0.00  0.00    +0.000 C 
ATOM      8  C7  IBP A 701      31.079  17.879 185.771  0.00  0.00    +0.000 C 
BRANCH   7   9
ATOM      9  C1  IBP A 701      28.922  16.711 186.346  0.00  0.00    +0.000 C 
ATOM     10  O1  IBP A 701      27.839  17.152 186.929  0.00  0.00    +0.000 OA
ATOM     11  O2  IBP A 701      29.358  15.582 186.544  0.00  0.00    +0.000 OA
ENDBRANCH   7   9
ENDBRANCH   1   7
BRANCH   4  12
ATOM     12  C2  IBP A 701      28.497  16.217 179.768  0.00  0.00    +0.000 C 
BRANCH  12  13
ATOM     13  C3  IBP A 701      28.634  17.363 178.757  0.00  0.00    +0.000 C 
ATOM     14  C4  IBP A 701      27.256  17.889 178.375  0.00  0.00    +0.000 C 
ATOM     15  C5  IBP A 701      29.363  16.912 177.512  0.00  0.00    +0.000 C 
ENDBRANCH  12  13
ENDBRANCH   4  12
TORSDOF 4
ENDMDL
MODEL 7
REMARK VINA RESULT:      -6.0      8.575     12.003
REMARK  Name = ligand.pdb
REMARK  7 active torsions:
REMARK  status: ('A' for Active; 'I' for Inactive)
REMARK    1  A    between atoms: C1_1  and  C6_8
REMARK    2  A    between atoms: C2_3  and  C3_5
REMARK    3  A    between atoms: C2_3  and  C11_13
REMARK    4  A    between atoms: C3_5  and  C4_6
REMARK    5  A    between atoms: C3_5  and  C5_7
REMARK    6  A    between atoms: C6_8  and  C7_9
REMARK    7  A    between atoms: C6_8  and  C8_10
REMARK                            x       y       z     vdW  Elec       q    Type
REMARK                         _______ _______ _______ _____ _____    ______ ____
ROOT
ATOM      1  C8  IBP A 701      28.494  25.709 207.004  0.00  0.00    +0.000 A 
ATOM      2  C9  IBP A 701      29.043  24.833 207.970  0.00  0.00    +0.000 A 
ATOM      3  C10 IBP A 701      28.886  25.076 209.358  0.00  0.00    +0.000 A 
ATOM      4  C11 IBP A 701      28.173  26.207 209.836  0.00  0.00    +0.000 A 
ATOM      5  C12 IBP A 701      27.624  27.079 208.875  0.00  0.00    +0.000 A 
ATOM      6  C13 IBP A 701      27.780  26.837 207.484  0.00  0.00    +0.000 A 
ENDROOT
BRANCH   1   7
ATOM      7  C6  IBP A 701      28.690  25.428 205.495  0.00  0.00    +0.000 C 
ATOM      8  C7  IBP A 701      30.155  25.229 205.095  0.00  0.00    +0.000 C 
BRANCH   7   9
ATOM      9  C1  IBP A 701      28.053  26.561 204.704  0.00  0.00    +0.000 C 
ATOM     10  O1  IBP A 701      26.770  26.416 204.503  0.00  0.00    +0.000 OA
ATOM     11  O2  IBP A 701      28.678  27.521 204.266  0.00  0.00    +0.000 OA
ENDBRANCH   7   9
ENDBRANCH   1   7
BRANCH   4  12
ATOM     12  C2  IBP A 701      28.019  26.462 211.332  0.00  0.00    +0.000 C 
BRANCH  12  13
ATOM     13  C3  IBP A 701      27.272  25.368 212.106  0.00  0.00    +0.000 C 
ATOM     14  C4  IBP A 701      25.769  25.602 212.021  0.00  0.00    +0.000 C 
ATOM     15  C5  IBP A 701      27.694  25.338 213.558  0.00  0.00    +0.000 C 
ENDBRANCH  12  13
ENDBRANCH   4  12
TORSDOF 4
ENDMDL
MODEL 8
REMARK VINA RESULT:      -5.9      9.418     11.774
REMARK  Name = ligand.pdb
REMARK  7 active torsions:
REMARK  status: ('A' for Active; 'I' for Inactive)
REMARK    1  A    between atoms: C1_1  and  C6_8
REMARK    2  A    between atoms: C2_3  and  C3_5
REMARK    3  A    between atoms: C2_3  and  C11_13
REMARK    4  A    between atoms: C3_5  and  C4_6
REMARK    5  A    between atoms: C3_5  and  C5_7
REMARK    6  A    between atoms: C6_8  and  C7_9
REMARK    7  A    between atoms: C6_8  and  C8_10
REMARK                            x       y       z     vdW  Elec       q    Type
REMARK                         _______ _______ _______ _____ _____    ______ ____
ROOT
ATOM      1  C8  IBP A 701      28.827  25.274 206.205  0.00  0.00    +0.000 A 
ATOM      2  C9  IBP A 701      29.319  24.659 207.381  0.00  0.00    +0.000 A 
ATOM      3  C10 IBP A 701      28.913  25.098 208.666  0.00  0.00    +0.000 A 
ATOM      4  C11 IBP A 701      27.998  26.172 208.828  0.00  0.00    +0.000 A 
ATOM      5  C12 IBP A 701      27.506  26.784 207.658  0.00  0.00    +0.000 A 
ATOM      6  C13 IBP A 701      27.911  26.345 206.369  0.00  0.00    +0.000 A 
ENDROOT
BRANCH   1   7
ATOM      7  C6  IBP A 701      29.295  24.784 204.814  0.00  0.00    +0.000 C 
ATOM      8  C7  IBP A 701      29.882  25.896 203.940  0.00  0.00    +0.000 C 
BRANCH   7   9
ATOM      9  C1  IBP A 701      28.126  24.100 204.122  0.00  0.00    +0.000 C 
ATOM     10  O1  IBP A 701      27.923  22.868 204.510  0.00  0.00    +0.000 OA
ATOM     11  O2  IBP A 701      27.438  24.633 203.258  0.00  0.00    +0.000 OA
ENDBRANCH   7   9
ENDBRANCH   1   7
BRANCH   4  12
ATOM     12  C2  IBP A 701      27.577  26.641 210.217  0.00  0.00    +0.000 C 
BRANCH  12  13
ATOM     13  C3  IBP A 701      27.078  25.534 211.155  0.00  0.00    +0.000 C 
ATOM     14  C4  IBP A 701      25.573  25.658 211.355  0.00  0.00    +0.000 C 
ATOM     15  C5  IBP A 701      27.770  25.600 212.498  0.00  0.00    +0.000 C 
ENDBRANCH  12  13
ENDBRANCH   4  12
TORSDOF 4
ENDMDL
MODEL 9
REMARK VINA RESULT:      -5.8     12.181     13.416
REMARK  Name = ligand.pdb
REMARK  7 active torsions:
REMARK  status: ('A' for Active; 'I' for Inactive)
REMARK    1  A    between atoms: C1_1  and  C6_8
REMARK    2  A    between atoms: C2_3  and  C3_5
REMARK    3  A    between atoms: C2_3  and  C11_13
REMARK    4  A    between atoms: C3_5  and  C4_6
REMARK    5  A    between atoms: C3_5  and  C5_7
REMARK    6  A    between atoms: C6_8  and  C7_9
REMARK    7  A    between atoms: C6_8  and  C8_10
REMARK                            x       y       z     vdW  Elec       q    Type
REMARK                         _______ _______ _______ _____ _____    ______ ____
ROOT
ATOM      1  C8  IBP A 701      15.407  34.711 209.163  0.00  0.00    +0.000 A 
ATOM      2  C9  IBP A 701      16.208  34.950 210.304  0.00  0.00    +0.000 A 
ATOM      3  C10 IBP A 701      17.050  36.088 210.387  0.00  0.00    +0.000 A 
ATOM      4  C11 IBP A 701      17.124  37.033 209.330  0.00  0.00    +0.000 A 
ATOM      5  C12 IBP A 701      16.325  36.797 208.194  0.00  0.00    +0.000 A 
ATOM      6  C13 IBP A 701      15.481  35.658 208.109  0.00  0.00    +0.000 A 
ENDROOT
BRANCH   1   7
ATOM      7  C6  IBP A 701      14.506  33.455 209.092  0.00  0.00    +0.000 C 
ATOM      8  C7  IBP A 701      14.438  32.675 210.408  0.00  0.00    +0.000 C 
BRANCH   7   9
ATOM      9  C1  IBP A 701      14.994  32.571 207.954  0.00  0.00    +0.000 C 
ATOM     10  O1  IBP A 701      14.440  32.834 206.799  0.00  0.00    +0.000 OA
ATOM     11  O2  IBP A 701      15.817  31.673 208.093  0.00  0.00    +0.000 OA
ENDBRANCH   7   9
ENDBRANCH   1   7
BRANCH   4  12
ATOM     12  C2  IBP A 701      18.041  38.248 209.428  0.00  0.00    +0.000 C 
BRANCH  12  13
ATOM     13  C3  IBP A 701      17.636  39.443 208.555  0.00  0.00    +0.000 C 
ATOM     14  C4  IBP A 701      18.844  39.961 207.787  0.00  0.00    +0.000 C 
ATOM     15  C5  IBP A 701      17.054  40.561 209.390  0.00  0.00    +0.000 C 
ENDBRANCH  12  13
ENDBRANCH   4  12
TORSDOF 4
ENDMDL
