REMARK VINA RESULT:      -6.0      5.679      7.138
REMARK  Name = 2244
REMARK                            x       y       z     vdW  Elec       q    Type
REMARK                         _______ _______ _______ _____ _____    ______ ____
ROOT
ATOM      1  C   LIG    1       24.440  43.034 184.888  0.00  0.00    +0.146 A 
ATOM      2  C   LIG    1       23.531  42.916 185.939  0.00  0.00    +0.047 A 
ATOM      3  C   LIG    1       23.758  41.991 186.958  0.00  0.00    +0.004 A 
ATOM      4  C   LIG    1       24.895  41.185 186.925  0.00  0.00    +0.001 A 
ATOM      5  C   LIG    1       25.805  41.302 185.875  0.00  0.00    +0.018 A 
ATOM      6  C   LIG    1       25.577  42.227 184.856  0.00  0.00    +0.101 A 
ENDROOT
BRANCH   6   7
ATOM      7  C   LIG    1       26.541  42.336 183.769  0.00  0.00    +0.340 C 
ATOM      8  O   LIG    1       26.812  41.463 182.949  0.00  0.00    -0.245 OA
BRANCH   7   9
ATOM      9  O   LIG    1       27.143  43.557 183.745  0.00  0.00    -0.477 OA
ATOM     10  H   LIG    1       28.079  43.508 184.036  0.00  0.00    +0.295 HD
ENDBRANCH   7   9
ENDBRANCH   6   7
BRANCH   1  11
ATOM     11  O   LIG    1       24.200  43.945 183.903  0.00  0.00    -0.425 OA
BRANCH  11  12
ATOM     12  C   LIG    1       23.151  43.593 183.041  0.00  0.00    +0.309 C 
ATOM     13  C   LIG    1       22.086  44.649 183.071  0.00  0.00    +0.136 C 
ATOM     14  O   LIG    1       23.095  42.579 182.357  0.00  0.00    -0.251 OA
ENDBRANCH  11  12
ENDBRANCH   1  11
TORSDOF 4
