REMARK VINA RESULT:      -6.0      8.575     12.003
REMARK  Name = ligand.pdb
REMARK  7 active torsions:
REMARK  status: ('A' for Active; 'I' for Inactive)
REMARK    1  A    between atoms: C1_1  and  C6_8
REMARK    2  A    between atoms: C2_3  and  C3_5
REMARK    3  A    between atoms: C2_3  and  C11_13
REMARK    4  A    between atoms: C3_5  and  C4_6
REMARK    5  A    between atoms: C3_5  and  C5_7
REMARK    6  A    between atoms: C6_8  and  C7_9
REMARK    7  A    between atoms: C6_8  and  C8_10
REMARK                            x       y       z     vdW  Elec       q    Type
REMARK                         _______ _______ _______ _____ _____    ______ ____
ROOT
ATOM      1  C8  IBP A 701      28.494  25.709 207.004  0.00  0.00    +0.000 A 
ATOM      2  C9  IBP A 701      29.043  24.833 207.970  0.00  0.00    +0.000 A 
ATOM      3  C10 IBP A 701      28.886  25.076 209.358  0.00  0.00    +0.000 A 
ATOM      4  C11 IBP A 701      28.173  26.207 209.836  0.00  0.00    +0.000 A 
ATOM      5  C12 IBP A 701      27.624  27.079 208.875  0.00  0.00    +0.000 A 
ATOM      6  C13 IBP A 701      27.780  26.837 207.484  0.00  0.00    +0.000 A 
ENDROOT
BRANCH   1   7
ATOM      7  C6  IBP A 701      28.690  25.428 205.495  0.00  0.00    +0.000 C 
ATOM      8  C7  IBP A 701      30.155  25.229 205.095  0.00  0.00    +0.000 C 
BRANCH   7   9
ATOM      9  C1  IBP A 701      28.053  26.561 204.704  0.00  0.00    +0.000 C 
ATOM     10  O1  IBP A 701      26.770  26.416 204.503  0.00  0.00    +0.000 OA
ATOM     11  O2  IBP A 701      28.678  27.521 204.266  0.00  0.00    +0.000 OA
ENDBRANCH   7   9
ENDBRANCH   1   7
BRANCH   4  12
ATOM     12  C2  IBP A 701      28.019  26.462 211.332  0.00  0.00    +0.000 C 
BRANCH  12  13
ATOM     13  C3  IBP A 701      27.272  25.368 212.106  0.00  0.00    +0.000 C 
ATOM     14  C4  IBP A 701      25.769  25.602 212.021  0.00  0.00    +0.000 C 
ATOM     15  C5  IBP A 701      27.694  25.338 213.558  0.00  0.00    +0.000 C 
ENDBRANCH  12  13
ENDBRANCH   4  12
TORSDOF 4
