REMARK VINA RESULT:      -5.9      1.398      3.249
REMARK  Name = 2244
REMARK                            x       y       z     vdW  Elec       q    Type
REMARK                         _______ _______ _______ _____ _____    ______ ____
ROOT
ATOM      1  C   LIG    1       21.525  44.583 190.668  0.00  0.00    +0.146 A 
ATOM      2  C   LIG    1       21.020  44.904 191.927  0.00  0.00    +0.047 A 
ATOM      3  C   LIG    1       20.336  46.104 192.121  0.00  0.00    +0.004 A 
ATOM      4  C   LIG    1       20.158  46.983 191.054  0.00  0.00    +0.001 A 
ATOM      5  C   LIG    1       20.663  46.664 189.793  0.00  0.00    +0.018 A 
ATOM      6  C   LIG    1       21.347  45.464 189.601  0.00  0.00    +0.101 A 
ENDROOT
BRANCH   6   7
ATOM      7  C   LIG    1       21.865  45.148 188.276  0.00  0.00    +0.340 C 
ATOM      8  O   LIG    1       22.349  44.077 187.922  0.00  0.00    -0.245 OA
BRANCH   7   9
ATOM      9  O   LIG    1       21.759  46.205 187.424  0.00  0.00    -0.477 OA
ATOM     10  H   LIG    1       21.354  46.986 187.860  0.00  0.00    +0.295 HD
ENDBRANCH   7   9
ENDBRANCH   6   7
BRANCH   1  11
ATOM     11  O   LIG    1       22.189  43.405 190.499  0.00  0.00    -0.425 OA
BRANCH  11  12
ATOM     12  C   LIG    1       23.495  43.406 191.012  0.00  0.00    +0.309 C 
ATOM     13  C   LIG    1       23.507  42.797 192.383  0.00  0.00    +0.136 C 
ATOM     14  O   LIG    1       24.489  43.834 190.440  0.00  0.00    -0.251 OA
ENDBRANCH  11  12
ENDBRANCH   1  11
TORSDOF 4
