REMARK VINA RESULT:      -5.8     12.181     13.416
REMARK  Name = ligand.pdb
REMARK  7 active torsions:
REMARK  status: ('A' for Active; 'I' for Inactive)
REMARK    1  A    between atoms: C1_1  and  C6_8
REMARK    2  A    between atoms: C2_3  and  C3_5
REMARK    3  A    between atoms: C2_3  and  C11_13
REMARK    4  A    between atoms: C3_5  and  C4_6
REMARK    5  A    between atoms: C3_5  and  C5_7
REMARK    6  A    between atoms: C6_8  and  C7_9
REMARK    7  A    between atoms: C6_8  and  C8_10
REMARK                            x       y       z     vdW  Elec       q    Type
REMARK                         _______ _______ _______ _____ _____    ______ ____
ROOT
ATOM      1  C8  IBP A 701      15.407  34.711 209.163  0.00  0.00    +0.000 A 
ATOM      2  C9  IBP A 701      16.208  34.950 210.304  0.00  0.00    +0.000 A 
ATOM      3  C10 IBP A 701      17.050  36.088 210.387  0.00  0.00    +0.000 A 
ATOM      4  C11 IBP A 701      17.124  37.033 209.330  0.00  0.00    +0.000 A 
ATOM      5  C12 IBP A 701      16.325  36.797 208.194  0.00  0.00    +0.000 A 
ATOM      6  C13 IBP A 701      15.481  35.658 208.109  0.00  0.00    +0.000 A 
ENDROOT
BRANCH   1   7
ATOM      7  C6  IBP A 701      14.506  33.455 209.092  0.00  0.00    +0.000 C 
ATOM      8  C7  IBP A 701      14.438  32.675 210.408  0.00  0.00    +0.000 C 
BRANCH   7   9
ATOM      9  C1  IBP A 701      14.994  32.571 207.954  0.00  0.00    +0.000 C 
ATOM     10  O1  IBP A 701      14.440  32.834 206.799  0.00  0.00    +0.000 OA
ATOM     11  O2  IBP A 701      15.817  31.673 208.093  0.00  0.00    +0.000 OA
ENDBRANCH   7   9
ENDBRANCH   1   7
BRANCH   4  12
ATOM     12  C2  IBP A 701      18.041  38.248 209.428  0.00  0.00    +0.000 C 
BRANCH  12  13
ATOM     13  C3  IBP A 701      17.636  39.443 208.555  0.00  0.00    +0.000 C 
ATOM     14  C4  IBP A 701      18.844  39.961 207.787  0.00  0.00    +0.000 C 
ATOM     15  C5  IBP A 701      17.054  40.561 209.390  0.00  0.00    +0.000 C 
ENDBRANCH  12  13
ENDBRANCH   4  12
TORSDOF 4
