REMARK VINA RESULT:      -6.7     11.148     13.114
REMARK  Name = 2244
REMARK                            x       y       z     vdW  Elec       q    Type
REMARK                         _______ _______ _______ _____ _____    ______ ____
ROOT
ATOM      1  C   LIG    1       25.936  34.723 198.228  0.00  0.00    +0.146 A 
ATOM      2  C   LIG    1       24.566  34.490 198.106  0.00  0.00    +0.047 A 
ATOM      3  C   LIG    1       23.785  34.306 199.246  0.00  0.00    +0.004 A 
ATOM      4  C   LIG    1       24.374  34.354 200.509  0.00  0.00    +0.001 A 
ATOM      5  C   LIG    1       25.743  34.587 200.633  0.00  0.00    +0.018 A 
ATOM      6  C   LIG    1       26.524  34.771 199.492  0.00  0.00    +0.101 A 
ENDROOT
BRANCH   6   7
ATOM      7  C   LIG    1       27.953  35.015 199.642  0.00  0.00    +0.340 C 
ATOM      8  O   LIG    1       28.782  34.224 200.081  0.00  0.00    -0.245 OA
BRANCH   7   9
ATOM      9  O   LIG    1       28.300  36.266 199.232  0.00  0.00    -0.477 OA
ATOM     10  H   LIG    1       27.605  36.672 198.671  0.00  0.00    +0.295 HD
ENDBRANCH   7   9
ENDBRANCH   6   7
BRANCH   1  11
ATOM     11  O   LIG    1       26.682  34.903 197.102  0.00  0.00    -0.425 OA
BRANCH  11  12
ATOM     12  C   LIG    1       26.403  36.095 196.416  0.00  0.00    +0.309 C 
ATOM     13  C   LIG    1       25.979  35.790 195.010  0.00  0.00    +0.136 C 
ATOM     14  O   LIG    1       26.487  37.225 196.880  0.00  0.00    -0.251 OA
ENDBRANCH  11  12
ENDBRANCH   1  11
TORSDOF 4
