REMARK VINA RESULT:      -5.7     23.290     24.261
REMARK  Name = 2244
REMARK                            x       y       z     vdW  Elec       q    Type
REMARK                         _______ _______ _______ _____ _____    ______ ____
ROOT
ATOM      1  C   LIG    1       26.523  24.891 204.318  0.00  0.00    +0.146 A 
ATOM      2  C   LIG    1       26.388  26.050 205.082  0.00  0.00    +0.047 A 
ATOM      3  C   LIG    1       25.163  26.717 205.128  0.00  0.00    +0.004 A 
ATOM      4  C   LIG    1       24.076  26.224 204.408  0.00  0.00    +0.001 A 
ATOM      5  C   LIG    1       24.210  25.065 203.644  0.00  0.00    +0.018 A 
ATOM      6  C   LIG    1       25.435  24.399 203.599  0.00  0.00    +0.101 A 
ENDROOT
BRANCH   6   7
ATOM      7  C   LIG    1       25.554  23.189 202.796  0.00  0.00    +0.340 C 
ATOM      8  O   LIG    1       24.995  22.117 203.010  0.00  0.00    -0.245 OA
BRANCH   7   9
ATOM      9  O   LIG    1       26.386  23.366 201.733  0.00  0.00    -0.477 OA
ATOM     10  H   LIG    1       27.127  22.722 201.737  0.00  0.00    +0.295 HD
ENDBRANCH   7   9
ENDBRANCH   6   7
BRANCH   1  11
ATOM     11  O   LIG    1       27.727  24.253 204.289  0.00  0.00    -0.425 OA
BRANCH  11  12
ATOM     12  C   LIG    1       28.701  24.904 203.517  0.00  0.00    +0.309 C 
ATOM     13  C   LIG    1       29.681  25.604 204.412  0.00  0.00    +0.136 C 
ATOM     14  O   LIG    1       28.760  24.911 202.295  0.00  0.00    -0.251 OA
ENDBRANCH  11  12
ENDBRANCH   1  11
TORSDOF 4
