REMARK VINA RESULT:      -7.4     21.775     23.007
REMARK  Name = ligand.pdb
REMARK  7 active torsions:
REMARK  status: ('A' for Active; 'I' for Inactive)
REMARK    1  A    between atoms: C1_1  and  C6_8
REMARK    2  A    between atoms: C2_3  and  C3_5
REMARK    3  A    between atoms: C2_3  and  C11_13
REMARK    4  A    between atoms: C3_5  and  C4_6
REMARK    5  A    between atoms: C3_5  and  C5_7
REMARK    6  A    between atoms: C6_8  and  C7_9
REMARK    7  A    between atoms: C6_8  and  C8_10
REMARK                            x       y       z     vdW  Elec       q    Type
REMARK                         _______ _______ _______ _____ _____    ______ ____
ROOT
ATOM      1  C8  IBP A 701      27.063  17.054 187.005  0.00  0.00    +0.000 A 
ATOM      2  C9  IBP A 701      28.365  16.651 186.628  0.00  0.00    +0.000 A 
ATOM      3  C10 IBP A 701      28.802  16.739 185.282  0.00  0.00    +0.000 A 
ATOM      4  C11 IBP A 701      27.953  17.236 184.258  0.00  0.00    +0.000 A 
ATOM      5  C12 IBP A 701      26.656  17.640 184.634  0.00  0.00    +0.000 A 
ATOM      6  C13 IBP A 701      26.217  17.552 185.981  0.00  0.00    +0.000 A 
ENDROOT
BRANCH   1   7
ATOM      7  C6  IBP A 701      26.606  16.936 188.479  0.00  0.00    +0.000 C 
ATOM      8  C7  IBP A 701      27.736  17.153 189.489  0.00  0.00    +0.000 C 
BRANCH   7   9
ATOM      9  C1  IBP A 701      25.945  15.579 188.675  0.00  0.00    +0.000 C 
ATOM     10  O1  IBP A 701      26.066  15.098 189.884  0.00  0.00    +0.000 OA
ATOM     11  O2  IBP A 701      25.367  14.968 187.783  0.00  0.00    +0.000 OA
ENDBRANCH   7   9
ENDBRANCH   1   7
BRANCH   4  12
ATOM     12  C2  IBP A 701      28.433  17.317 182.813  0.00  0.00    +0.000 C 
BRANCH  12  13
ATOM     13  C3  IBP A 701      27.709  16.385 181.833  0.00  0.00    +0.000 C 
ATOM     14  C4  IBP A 701      28.058  14.934 182.138  0.00  0.00    +0.000 C 
ATOM     15  C5  IBP A 701      28.081  16.699 180.401  0.00  0.00    +0.000 C 
ENDBRANCH  12  13
ENDBRANCH   4  12
TORSDOF 4
