REMARK VINA RESULT:      -7.0     22.290     23.899
REMARK  Name = ligand.pdb
REMARK  7 active torsions:
REMARK  status: ('A' for Active; 'I' for Inactive)
REMARK    1  A    between atoms: C1_1  and  C6_8
REMARK    2  A    between atoms: C2_3  and  C3_5
REMARK    3  A    between atoms: C2_3  and  C11_13
REMARK    4  A    between atoms: C3_5  and  C4_6
REMARK    5  A    between atoms: C3_5  and  C5_7
REMARK    6  A    between atoms: C6_8  and  C7_9
REMARK    7  A    between atoms: C6_8  and  C8_10
REMARK                            x       y       z     vdW  Elec       q    Type
REMARK                         _______ _______ _______ _____ _____    ______ ____
ROOT
ATOM      1  C8  IBP A 701      28.350  17.191 183.543  0.00  0.00    +0.000 A 
ATOM      2  C9  IBP A 701      26.964  17.388 183.749  0.00  0.00    +0.000 A 
ATOM      3  C10 IBP A 701      26.420  17.477 185.055  0.00  0.00    +0.000 A 
ATOM      4  C11 IBP A 701      27.241  17.372 186.209  0.00  0.00    +0.000 A 
ATOM      5  C12 IBP A 701      28.622  17.177 186.004  0.00  0.00    +0.000 A 
ATOM      6  C13 IBP A 701      29.169  17.088 184.696  0.00  0.00    +0.000 A 
ENDROOT
BRANCH   1   7
ATOM      7  C6  IBP A 701      28.918  17.084 182.107  0.00  0.00    +0.000 C 
ATOM      8  C7  IBP A 701      27.878  16.653 181.069  0.00  0.00    +0.000 C 
BRANCH   7   9
ATOM      9  C1  IBP A 701      30.105  16.134 182.123  0.00  0.00    +0.000 C 
ATOM     10  O1  IBP A 701      29.793  14.896 182.402  0.00  0.00    +0.000 OA
ATOM     11  O2  IBP A 701      31.262  16.485 181.918  0.00  0.00    +0.000 OA
ENDBRANCH   7   9
ENDBRANCH   1   7
BRANCH   4  12
ATOM     12  C2  IBP A 701      26.642  17.460 187.608  0.00  0.00    +0.000 C 
BRANCH  12  13
ATOM     13  C3  IBP A 701      26.977  16.285 188.536  0.00  0.00    +0.000 C 
ATOM     14  C4  IBP A 701      25.777  15.354 188.652  0.00  0.00    +0.000 C 
ATOM     15  C5  IBP A 701      27.372  16.769 189.913  0.00  0.00    +0.000 C 
ENDBRANCH  12  13
ENDBRANCH   4  12
TORSDOF 4
