REMARK VINA RESULT:      -6.9      0.000      0.000
REMARK  Name = 2244
REMARK                            x       y       z     vdW  Elec       q    Type
REMARK                         _______ _______ _______ _____ _____    ______ ____
ROOT
ATOM      1  C   LIG    1       21.445  44.153 190.041  0.00  0.00    +0.146 A 
ATOM      2  C   LIG    1       20.356  44.960 189.714  0.00  0.00    +0.047 A 
ATOM      3  C   LIG    1       19.901  45.919 190.619  0.00  0.00    +0.004 A 
ATOM      4  C   LIG    1       20.534  46.068 191.852  0.00  0.00    +0.001 A 
ATOM      5  C   LIG    1       21.624  45.262 192.180  0.00  0.00    +0.018 A 
ATOM      6  C   LIG    1       22.078  44.303 191.275  0.00  0.00    +0.101 A 
ENDROOT
BRANCH   6   7
ATOM      7  C   LIG    1       23.219  43.472 191.636  0.00  0.00    +0.340 C 
ATOM      8  O   LIG    1       23.236  42.596 192.496  0.00  0.00    -0.245 OA
BRANCH   7   9
ATOM      9  O   LIG    1       24.321  43.772 190.894  0.00  0.00    -0.477 OA
ATOM     10  H   LIG    1       24.164  43.636 189.935  0.00  0.00    +0.295 HD
ENDBRANCH   7   9
ENDBRANCH   6   7
BRANCH   1  11
ATOM     11  O   LIG    1       21.876  43.224 189.142  0.00  0.00    -0.425 OA
BRANCH  11  12
ATOM     12  C   LIG    1       22.563  43.766 188.045  0.00  0.00    +0.309 C 
ATOM     13  C   LIG    1       23.396  42.706 187.387  0.00  0.00    +0.136 C 
ATOM     14  O   LIG    1       22.504  44.928 187.665  0.00  0.00    -0.251 OA
ENDBRANCH  11  12
ENDBRANCH   1  11
TORSDOF 4
