MODEL 1
REMARK VINA RESULT:      -6.9      0.000      0.000
REMARK  Name = 2244
REMARK                            x       y       z     vdW  Elec       q    Type
REMARK                         _______ _______ _______ _____ _____    ______ ____
ROOT
ATOM      1  C   LIG    1       21.445  44.153 190.041  0.00  0.00    +0.146 A 
ATOM      2  C   LIG    1       20.356  44.960 189.714  0.00  0.00    +0.047 A 
ATOM      3  C   LIG    1       19.901  45.919 190.619  0.00  0.00    +0.004 A 
ATOM      4  C   LIG    1       20.534  46.068 191.852  0.00  0.00    +0.001 A 
ATOM      5  C   LIG    1       21.624  45.262 192.180  0.00  0.00    +0.018 A 
ATOM      6  C   LIG    1       22.078  44.303 191.275  0.00  0.00    +0.101 A 
ENDROOT
BRANCH   6   7
ATOM      7  C   LIG    1       23.219  43.472 191.636  0.00  0.00    +0.340 C 
ATOM      8  O   LIG    1       23.236  42.596 192.496  0.00  0.00    -0.245 OA
BRANCH   7   9
ATOM      9  O   LIG    1       24.321  43.772 190.894  0.00  0.00    -0.477 OA
ATOM     10  H   LIG    1       24.164  43.636 189.935  0.00  0.00    +0.295 HD
ENDBRANCH   7   9
ENDBRANCH   6   7
BRANCH   1  11
ATOM     11  O   LIG    1       21.876  43.224 189.142  0.00  0.00    -0.425 OA
BRANCH  11  12
ATOM     12  C   LIG    1       22.563  43.766 188.045  0.00  0.00    +0.309 C 
ATOM     13  C   LIG    1       23.396  42.706 187.387  0.00  0.00    +0.136 C 
ATOM     14  O   LIG    1       22.504  44.928 187.665  0.00  0.00    -0.251 OA
ENDBRANCH  11  12
ENDBRANCH   1  11
TORSDOF 4
ENDMDL
MODEL 2
REMARK VINA RESULT:      -6.8     11.219     12.737
REMARK  Name = 2244
REMARK                            x       y       z     vdW  Elec       q    Type
REMARK                         _______ _______ _______ _____ _____    ______ ____
ROOT
ATOM      1  C   LIG    1       25.124  35.746 197.908  0.00  0.00    +0.146 A 
ATOM      2  C   LIG    1       24.169  35.049 197.170  0.00  0.00    +0.047 A 
ATOM      3  C   LIG    1       24.374  34.808 195.812  0.00  0.00    +0.004 A 
ATOM      4  C   LIG    1       25.535  35.267 195.192  0.00  0.00    +0.001 A 
ATOM      5  C   LIG    1       26.492  35.965 195.929  0.00  0.00    +0.018 A 
ATOM      6  C   LIG    1       26.286  36.205 197.287  0.00  0.00    +0.101 A 
ENDROOT
BRANCH   6   7
ATOM      7  C   LIG    1       27.298  36.935 198.040  0.00  0.00    +0.340 C 
ATOM      8  O   LIG    1       27.721  38.059 197.787  0.00  0.00    -0.245 OA
BRANCH   7   9
ATOM      9  O   LIG    1       27.755  36.217 199.103  0.00  0.00    -0.477 OA
ATOM     10  H   LIG    1       27.413  36.566 199.954  0.00  0.00    +0.295 HD
ENDBRANCH   7   9
ENDBRANCH   6   7
BRANCH   1  11
ATOM     11  O   LIG    1       24.906  35.969 199.235  0.00  0.00    -0.425 OA
BRANCH  11  12
ATOM     12  C   LIG    1       24.914  34.805 200.019  0.00  0.00    +0.309 C 
ATOM     13  C   LIG    1       23.703  34.775 200.904  0.00  0.00    +0.136 C 
ATOM     14  O   LIG    1       25.772  33.932 199.997  0.00  0.00    -0.251 OA
ENDBRANCH  11  12
ENDBRANCH   1  11
TORSDOF 4
ENDMDL
MODEL 3
REMARK VINA RESULT:      -6.7     11.148     13.114
REMARK  Name = 2244
REMARK                            x       y       z     vdW  Elec       q    Type
REMARK                         _______ _______ _______ _____ _____    ______ ____
ROOT
ATOM      1  C   LIG    1       25.936  34.723 198.228  0.00  0.00    +0.146 A 
ATOM      2  C   LIG    1       24.566  34.490 198.106  0.00  0.00    +0.047 A 
ATOM      3  C   LIG    1       23.785  34.306 199.246  0.00  0.00    +0.004 A 
ATOM      4  C   LIG    1       24.374  34.354 200.509  0.00  0.00    +0.001 A 
ATOM      5  C   LIG    1       25.743  34.587 200.633  0.00  0.00    +0.018 A 
ATOM      6  C   LIG    1       26.524  34.771 199.492  0.00  0.00    +0.101 A 
ENDROOT
BRANCH   6   7
ATOM      7  C   LIG    1       27.953  35.015 199.642  0.00  0.00    +0.340 C 
ATOM      8  O   LIG    1       28.782  34.224 200.081  0.00  0.00    -0.245 OA
BRANCH   7   9
ATOM      9  O   LIG    1       28.300  36.266 199.232  0.00  0.00    -0.477 OA
ATOM     10  H   LIG    1       27.605  36.672 198.671  0.00  0.00    +0.295 HD
ENDBRANCH   7   9
ENDBRANCH   6   7
BRANCH   1  11
ATOM     11  O   LIG    1       26.682  34.903 197.102  0.00  0.00    -0.425 OA
BRANCH  11  12
ATOM     12  C   LIG    1       26.403  36.095 196.416  0.00  0.00    +0.309 C 
ATOM     13  C   LIG    1       25.979  35.790 195.010  0.00  0.00    +0.136 C 
ATOM     14  O   LIG    1       26.487  37.225 196.880  0.00  0.00    -0.251 OA
ENDBRANCH  11  12
ENDBRANCH   1  11
TORSDOF 4
ENDMDL
MODEL 4
REMARK VINA RESULT:      -6.1      1.649      3.404
REMARK  Name = 2244
REMARK                            x       y       z     vdW  Elec       q    Type
REMARK                         _______ _______ _______ _____ _____    ______ ____
ROOT
ATOM      1  C   LIG    1       21.499  44.589 189.678  0.00  0.00    +0.146 A 
ATOM      2  C   LIG    1       20.534  45.594 189.713  0.00  0.00    +0.047 A 
ATOM      3  C   LIG    1       20.490  46.557 188.705  0.00  0.00    +0.004 A 
ATOM      4  C   LIG    1       21.414  46.514 187.661  0.00  0.00    +0.001 A 
ATOM      5  C   LIG    1       22.380  45.509 187.624  0.00  0.00    +0.018 A 
ATOM      6  C   LIG    1       22.423  44.547 188.633  0.00  0.00    +0.101 A 
ENDROOT
BRANCH   6   7
ATOM      7  C   LIG    1       23.439  43.504 188.576  0.00  0.00    +0.340 C 
ATOM      8  O   LIG    1       24.565  43.559 189.062  0.00  0.00    -0.245 OA
BRANCH   7   9
ATOM      9  O   LIG    1       23.002  42.407 187.898  0.00  0.00    -0.477 OA
ATOM     10  H   LIG    1       22.033  42.431 187.749  0.00  0.00    +0.295 HD
ENDBRANCH   7   9
ENDBRANCH   6   7
BRANCH   1  11
ATOM     11  O   LIG    1       21.524  43.657 190.671  0.00  0.00    -0.425 OA
BRANCH  11  12
ATOM     12  C   LIG    1       22.303  44.023 191.780  0.00  0.00    +0.309 C 
ATOM     13  C   LIG    1       23.162  42.869 192.205  0.00  0.00    +0.136 C 
ATOM     14  O   LIG    1       22.297  45.116 192.331  0.00  0.00    -0.251 OA
ENDBRANCH  11  12
ENDBRANCH   1  11
TORSDOF 4
ENDMDL
MODEL 5
REMARK VINA RESULT:      -6.0      5.679      7.138
REMARK  Name = 2244
REMARK                            x       y       z     vdW  Elec       q    Type
REMARK                         _______ _______ _______ _____ _____    ______ ____
ROOT
ATOM      1  C   LIG    1       24.440  43.034 184.888  0.00  0.00    +0.146 A 
ATOM      2  C   LIG    1       23.531  42.916 185.939  0.00  0.00    +0.047 A 
ATOM      3  C   LIG    1       23.758  41.991 186.958  0.00  0.00    +0.004 A 
ATOM      4  C   LIG    1       24.895  41.185 186.925  0.00  0.00    +0.001 A 
ATOM      5  C   LIG    1       25.805  41.302 185.875  0.00  0.00    +0.018 A 
ATOM      6  C   LIG    1       25.577  42.227 184.856  0.00  0.00    +0.101 A 
ENDROOT
BRANCH   6   7
ATOM      7  C   LIG    1       26.541  42.336 183.769  0.00  0.00    +0.340 C 
ATOM      8  O   LIG    1       26.812  41.463 182.949  0.00  0.00    -0.245 OA
BRANCH   7   9
ATOM      9  O   LIG    1       27.143  43.557 183.745  0.00  0.00    -0.477 OA
ATOM     10  H   LIG    1       28.079  43.508 184.036  0.00  0.00    +0.295 HD
ENDBRANCH   7   9
ENDBRANCH   6   7
BRANCH   1  11
ATOM     11  O   LIG    1       24.200  43.945 183.903  0.00  0.00    -0.425 OA
BRANCH  11  12
ATOM     12  C   LIG    1       23.151  43.593 183.041  0.00  0.00    +0.309 C 
ATOM     13  C   LIG    1       22.086  44.649 183.071  0.00  0.00    +0.136 C 
ATOM     14  O   LIG    1       23.095  42.579 182.357  0.00  0.00    -0.251 OA
ENDBRANCH  11  12
ENDBRANCH   1  11
TORSDOF 4
ENDMDL
MODEL 6
REMARK VINA RESULT:      -5.9     12.667     14.726
REMARK  Name = 2244
REMARK                            x       y       z     vdW  Elec       q    Type
REMARK                         _______ _______ _______ _____ _____    ______ ____
ROOT
ATOM      1  C   LIG    1       26.014  35.045 200.360  0.00  0.00    +0.146 A 
ATOM      2  C   LIG    1       24.658  35.359 200.432  0.00  0.00    +0.047 A 
ATOM      3  C   LIG    1       23.816  34.633 201.274  0.00  0.00    +0.004 A 
ATOM      4  C   LIG    1       24.332  33.590 202.042  0.00  0.00    +0.001 A 
ATOM      5  C   LIG    1       25.689  33.274 201.971  0.00  0.00    +0.018 A 
ATOM      6  C   LIG    1       26.530  34.002 201.129  0.00  0.00    +0.101 A 
ENDROOT
BRANCH   6   7
ATOM      7  C   LIG    1       27.944  33.658 201.070  0.00  0.00    +0.340 C 
ATOM      8  O   LIG    1       28.739  33.997 200.198  0.00  0.00    -0.245 OA
BRANCH   7   9
ATOM      9  O   LIG    1       28.322  32.884 202.126  0.00  0.00    -0.477 OA
ATOM     10  H   LIG    1       29.069  33.282 202.621  0.00  0.00    +0.295 HD
ENDBRANCH   7   9
ENDBRANCH   6   7
BRANCH   1  11
ATOM     11  O   LIG    1       26.820  35.769 199.533  0.00  0.00    -0.425 OA
BRANCH  11  12
ATOM     12  C   LIG    1       26.565  35.570 198.167  0.00  0.00    +0.309 C 
ATOM     13  C   LIG    1       26.434  36.893 197.473  0.00  0.00    +0.136 C 
ATOM     14  O   LIG    1       26.462  34.486 197.608  0.00  0.00    -0.251 OA
ENDBRANCH  11  12
ENDBRANCH   1  11
TORSDOF 4
ENDMDL
MODEL 7
REMARK VINA RESULT:      -5.9      1.398      3.249
REMARK  Name = 2244
REMARK                            x       y       z     vdW  Elec       q    Type
REMARK                         _______ _______ _______ _____ _____    ______ ____
ROOT
ATOM      1  C   LIG    1       21.525  44.583 190.668  0.00  0.00    +0.146 A 
ATOM      2  C   LIG    1       21.020  44.904 191.927  0.00  0.00    +0.047 A 
ATOM      3  C   LIG    1       20.336  46.104 192.121  0.00  0.00    +0.004 A 
ATOM      4  C   LIG    1       20.158  46.983 191.054  0.00  0.00    +0.001 A 
ATOM      5  C   LIG    1       20.663  46.664 189.793  0.00  0.00    +0.018 A 
ATOM      6  C   LIG    1       21.347  45.464 189.601  0.00  0.00    +0.101 A 
ENDROOT
BRANCH   6   7
ATOM      7  C   LIG    1       21.865  45.148 188.276  0.00  0.00    +0.340 C 
ATOM      8  O   LIG    1       22.349  44.077 187.922  0.00  0.00    -0.245 OA
BRANCH   7   9
ATOM      9  O   LIG    1       21.759  46.205 187.424  0.00  0.00    -0.477 OA
ATOM     10  H   LIG    1       21.354  46.986 187.860  0.00  0.00    +0.295 HD
ENDBRANCH   7   9
ENDBRANCH   6   7
BRANCH   1  11
ATOM     11  O   LIG    1       22.189  43.405 190.499  0.00  0.00    -0.425 OA
BRANCH  11  12
ATOM     12  C   LIG    1       23.495  43.406 191.012  0.00  0.00    +0.309 C 
ATOM     13  C   LIG    1       23.507  42.797 192.383  0.00  0.00    +0.136 C 
ATOM     14  O   LIG    1       24.489  43.834 190.440  0.00  0.00    -0.251 OA
ENDBRANCH  11  12
ENDBRANCH   1  11
TORSDOF 4
ENDMDL
MODEL 8
REMARK VINA RESULT:      -5.7     23.290     24.261
REMARK  Name = 2244
REMARK                            x       y       z     vdW  Elec       q    Type
REMARK                         _______ _______ _______ _____ _____    ______ ____
ROOT
ATOM      1  C   LIG    1       26.523  24.891 204.318  0.00  0.00    +0.146 A 
ATOM      2  C   LIG    1       26.388  26.050 205.082  0.00  0.00    +0.047 A 
ATOM      3  C   LIG    1       25.163  26.717 205.128  0.00  0.00    +0.004 A 
ATOM      4  C   LIG    1       24.076  26.224 204.408  0.00  0.00    +0.001 A 
ATOM      5  C   LIG    1       24.210  25.065 203.644  0.00  0.00    +0.018 A 
ATOM      6  C   LIG    1       25.435  24.399 203.599  0.00  0.00    +0.101 A 
ENDROOT
BRANCH   6   7
ATOM      7  C   LIG    1       25.554  23.189 202.796  0.00  0.00    +0.340 C 
ATOM      8  O   LIG    1       24.995  22.117 203.010  0.00  0.00    -0.245 OA
BRANCH   7   9
ATOM      9  O   LIG    1       26.386  23.366 201.733  0.00  0.00    -0.477 OA
ATOM     10  H   LIG    1       27.127  22.722 201.737  0.00  0.00    +0.295 HD
ENDBRANCH   7   9
ENDBRANCH   6   7
BRANCH   1  11
ATOM     11  O   LIG    1       27.727  24.253 204.289  0.00  0.00    -0.425 OA
BRANCH  11  12
ATOM     12  C   LIG    1       28.701  24.904 203.517  0.00  0.00    +0.309 C 
ATOM     13  C   LIG    1       29.681  25.604 204.412  0.00  0.00    +0.136 C 
ATOM     14  O   LIG    1       28.760  24.911 202.295  0.00  0.00    -0.251 OA
ENDBRANCH  11  12
ENDBRANCH   1  11
TORSDOF 4
ENDMDL
MODEL 9
REMARK VINA RESULT:      -5.7     22.285     24.247
REMARK  Name = 2244
REMARK                            x       y       z     vdW  Elec       q    Type
REMARK                         _______ _______ _______ _____ _____    ______ ____
ROOT
ATOM      1  C   LIG    1       26.898  25.488 204.917  0.00  0.00    +0.146 A 
ATOM      2  C   LIG    1       27.519  24.397 205.524  0.00  0.00    +0.047 A 
ATOM      3  C   LIG    1       28.028  24.514 206.817  0.00  0.00    +0.004 A 
ATOM      4  C   LIG    1       27.916  25.723 207.503  0.00  0.00    +0.001 A 
ATOM      5  C   LIG    1       27.294  26.815 206.897  0.00  0.00    +0.018 A 
ATOM      6  C   LIG    1       26.786  26.697 205.604  0.00  0.00    +0.101 A 
ENDROOT
BRANCH   6   7
ATOM      7  C   LIG    1       26.139  27.849 204.989  0.00  0.00    +0.340 C 
ATOM      8  O   LIG    1       26.695  28.869 204.593  0.00  0.00    -0.245 OA
BRANCH   7   9
ATOM      9  O   LIG    1       24.791  27.680 204.890  0.00  0.00    -0.477 OA
ATOM     10  H   LIG    1       24.301  28.491 205.146  0.00  0.00    +0.295 HD
ENDBRANCH   7   9
ENDBRANCH   6   7
BRANCH   1  11
ATOM     11  O   LIG    1       26.405  25.353 203.653  0.00  0.00    -0.425 OA
BRANCH  11  12
ATOM     12  C   LIG    1       25.238  24.577 203.574  0.00  0.00    +0.309 C 
ATOM     13  C   LIG    1       25.533  23.276 202.888  0.00  0.00    +0.136 C 
ATOM     14  O   LIG    1       24.135  24.897 203.998  0.00  0.00    -0.251 OA
ENDBRANCH  11  12
ENDBRANCH   1  11
TORSDOF 4
ENDMDL
