REMARK VINA RESULT:      -5.7     22.285     24.247
REMARK  Name = 2244
REMARK                            x       y       z     vdW  Elec       q    Type
REMARK                         _______ _______ _______ _____ _____    ______ ____
ROOT
ATOM      1  C   LIG    1       26.898  25.488 204.917  0.00  0.00    +0.146 A 
ATOM      2  C   LIG    1       27.519  24.397 205.524  0.00  0.00    +0.047 A 
ATOM      3  C   LIG    1       28.028  24.514 206.817  0.00  0.00    +0.004 A 
ATOM      4  C   LIG    1       27.916  25.723 207.503  0.00  0.00    +0.001 A 
ATOM      5  C   LIG    1       27.294  26.815 206.897  0.00  0.00    +0.018 A 
ATOM      6  C   LIG    1       26.786  26.697 205.604  0.00  0.00    +0.101 A 
ENDROOT
BRANCH   6   7
ATOM      7  C   LIG    1       26.139  27.849 204.989  0.00  0.00    +0.340 C 
ATOM      8  O   LIG    1       26.695  28.869 204.593  0.00  0.00    -0.245 OA
BRANCH   7   9
ATOM      9  O   LIG    1       24.791  27.680 204.890  0.00  0.00    -0.477 OA
ATOM     10  H   LIG    1       24.301  28.491 205.146  0.00  0.00    +0.295 HD
ENDBRANCH   7   9
ENDBRANCH   6   7
BRANCH   1  11
ATOM     11  O   LIG    1       26.405  25.353 203.653  0.00  0.00    -0.425 OA
BRANCH  11  12
ATOM     12  C   LIG    1       25.238  24.577 203.574  0.00  0.00    +0.309 C 
ATOM     13  C   LIG    1       25.533  23.276 202.888  0.00  0.00    +0.136 C 
ATOM     14  O   LIG    1       24.135  24.897 203.998  0.00  0.00    -0.251 OA
ENDBRANCH  11  12
ENDBRANCH   1  11
TORSDOF 4
