REMARK VINA RESULT:      -7.5      3.215      6.351
REMARK  Name = ligand.pdb
REMARK  7 active torsions:
REMARK  status: ('A' for Active; 'I' for Inactive)
REMARK    1  A    between atoms: C1_1  and  C6_8
REMARK    2  A    between atoms: C2_3  and  C3_5
REMARK    3  A    between atoms: C2_3  and  C11_13
REMARK    4  A    between atoms: C3_5  and  C4_6
REMARK    5  A    between atoms: C3_5  and  C5_7
REMARK    6  A    between atoms: C6_8  and  C7_9
REMARK    7  A    between atoms: C6_8  and  C8_10
REMARK                            x       y       z     vdW  Elec       q    Type
REMARK                         _______ _______ _______ _____ _____    ______ ____
ROOT
ATOM      1  C8  IBP A 701      25.002  35.032 199.184  0.00  0.00    +0.000 A 
ATOM      2  C9  IBP A 701      24.099  34.995 200.273  0.00  0.00    +0.000 A 
ATOM      3  C10 IBP A 701      24.455  34.391 201.505  0.00  0.00    +0.000 A 
ATOM      4  C11 IBP A 701      25.731  33.799 201.698  0.00  0.00    +0.000 A 
ATOM      5  C12 IBP A 701      26.632  33.837 200.615  0.00  0.00    +0.000 A 
ATOM      6  C13 IBP A 701      26.277  34.441 199.380  0.00  0.00    +0.000 A 
ENDROOT
BRANCH   1   7
ATOM      7  C6  IBP A 701      24.584  35.686 197.846  0.00  0.00    +0.000 C 
ATOM      8  C7  IBP A 701      23.810  34.743 196.920  0.00  0.00    +0.000 C 
BRANCH   7   9
ATOM      9  C1  IBP A 701      25.829  36.229 197.161  0.00  0.00    +0.000 C 
ATOM     10  O1  IBP A 701      26.282  35.470 196.198  0.00  0.00    +0.000 OA
ATOM     11  O2  IBP A 701      26.384  37.274 197.485  0.00  0.00    +0.000 OA
ENDBRANCH   7   9
ENDBRANCH   1   7
BRANCH   4  12
ATOM     12  C2  IBP A 701      26.099  33.144 203.025  0.00  0.00    +0.000 C 
BRANCH  12  13
ATOM     13  C3  IBP A 701      27.458  32.433 203.047  0.00  0.00    +0.000 C 
ATOM     14  C4  IBP A 701      27.258  30.923 203.038  0.00  0.00    +0.000 C 
ATOM     15  C5  IBP A 701      28.263  32.826 204.266  0.00  0.00    +0.000 C 
ENDBRANCH  12  13
ENDBRANCH   4  12
TORSDOF 4
