REMARK VINA RESULT:      -5.9     12.667     14.726
REMARK  Name = 2244
REMARK                            x       y       z     vdW  Elec       q    Type
REMARK                         _______ _______ _______ _____ _____    ______ ____
ROOT
ATOM      1  C   LIG    1       26.014  35.045 200.360  0.00  0.00    +0.146 A 
ATOM      2  C   LIG    1       24.658  35.359 200.432  0.00  0.00    +0.047 A 
ATOM      3  C   LIG    1       23.816  34.633 201.274  0.00  0.00    +0.004 A 
ATOM      4  C   LIG    1       24.332  33.590 202.042  0.00  0.00    +0.001 A 
ATOM      5  C   LIG    1       25.689  33.274 201.971  0.00  0.00    +0.018 A 
ATOM      6  C   LIG    1       26.530  34.002 201.129  0.00  0.00    +0.101 A 
ENDROOT
BRANCH   6   7
ATOM      7  C   LIG    1       27.944  33.658 201.070  0.00  0.00    +0.340 C 
ATOM      8  O   LIG    1       28.739  33.997 200.198  0.00  0.00    -0.245 OA
BRANCH   7   9
ATOM      9  O   LIG    1       28.322  32.884 202.126  0.00  0.00    -0.477 OA
ATOM     10  H   LIG    1       29.069  33.282 202.621  0.00  0.00    +0.295 HD
ENDBRANCH   7   9
ENDBRANCH   6   7
BRANCH   1  11
ATOM     11  O   LIG    1       26.820  35.769 199.533  0.00  0.00    -0.425 OA
BRANCH  11  12
ATOM     12  C   LIG    1       26.565  35.570 198.167  0.00  0.00    +0.309 C 
ATOM     13  C   LIG    1       26.434  36.893 197.473  0.00  0.00    +0.136 C 
ATOM     14  O   LIG    1       26.462  34.486 197.608  0.00  0.00    -0.251 OA
ENDBRANCH  11  12
ENDBRANCH   1  11
TORSDOF 4
