REMARK VINA RESULT:      -6.8     11.219     12.737
REMARK  Name = 2244
REMARK                            x       y       z     vdW  Elec       q    Type
REMARK                         _______ _______ _______ _____ _____    ______ ____
ROOT
ATOM      1  C   LIG    1       25.124  35.746 197.908  0.00  0.00    +0.146 A 
ATOM      2  C   LIG    1       24.169  35.049 197.170  0.00  0.00    +0.047 A 
ATOM      3  C   LIG    1       24.374  34.808 195.812  0.00  0.00    +0.004 A 
ATOM      4  C   LIG    1       25.535  35.267 195.192  0.00  0.00    +0.001 A 
ATOM      5  C   LIG    1       26.492  35.965 195.929  0.00  0.00    +0.018 A 
ATOM      6  C   LIG    1       26.286  36.205 197.287  0.00  0.00    +0.101 A 
ENDROOT
BRANCH   6   7
ATOM      7  C   LIG    1       27.298  36.935 198.040  0.00  0.00    +0.340 C 
ATOM      8  O   LIG    1       27.721  38.059 197.787  0.00  0.00    -0.245 OA
BRANCH   7   9
ATOM      9  O   LIG    1       27.755  36.217 199.103  0.00  0.00    -0.477 OA
ATOM     10  H   LIG    1       27.413  36.566 199.954  0.00  0.00    +0.295 HD
ENDBRANCH   7   9
ENDBRANCH   6   7
BRANCH   1  11
ATOM     11  O   LIG    1       24.906  35.969 199.235  0.00  0.00    -0.425 OA
BRANCH  11  12
ATOM     12  C   LIG    1       24.914  34.805 200.019  0.00  0.00    +0.309 C 
ATOM     13  C   LIG    1       23.703  34.775 200.904  0.00  0.00    +0.136 C 
ATOM     14  O   LIG    1       25.772  33.932 199.997  0.00  0.00    -0.251 OA
ENDBRANCH  11  12
ENDBRANCH   1  11
TORSDOF 4
