REMARK VINA RESULT:      -6.1      1.649      3.404
REMARK  Name = 2244
REMARK                            x       y       z     vdW  Elec       q    Type
REMARK                         _______ _______ _______ _____ _____    ______ ____
ROOT
ATOM      1  C   LIG    1       21.499  44.589 189.678  0.00  0.00    +0.146 A 
ATOM      2  C   LIG    1       20.534  45.594 189.713  0.00  0.00    +0.047 A 
ATOM      3  C   LIG    1       20.490  46.557 188.705  0.00  0.00    +0.004 A 
ATOM      4  C   LIG    1       21.414  46.514 187.661  0.00  0.00    +0.001 A 
ATOM      5  C   LIG    1       22.380  45.509 187.624  0.00  0.00    +0.018 A 
ATOM      6  C   LIG    1       22.423  44.547 188.633  0.00  0.00    +0.101 A 
ENDROOT
BRANCH   6   7
ATOM      7  C   LIG    1       23.439  43.504 188.576  0.00  0.00    +0.340 C 
ATOM      8  O   LIG    1       24.565  43.559 189.062  0.00  0.00    -0.245 OA
BRANCH   7   9
ATOM      9  O   LIG    1       23.002  42.407 187.898  0.00  0.00    -0.477 OA
ATOM     10  H   LIG    1       22.033  42.431 187.749  0.00  0.00    +0.295 HD
ENDBRANCH   7   9
ENDBRANCH   6   7
BRANCH   1  11
ATOM     11  O   LIG    1       21.524  43.657 190.671  0.00  0.00    -0.425 OA
BRANCH  11  12
ATOM     12  C   LIG    1       22.303  44.023 191.780  0.00  0.00    +0.309 C 
ATOM     13  C   LIG    1       23.162  42.869 192.205  0.00  0.00    +0.136 C 
ATOM     14  O   LIG    1       22.297  45.116 192.331  0.00  0.00    -0.251 OA
ENDBRANCH  11  12
ENDBRANCH   1  11
TORSDOF 4
