REMARK  Name = 2244
REMARK                            x       y       z     vdW  Elec       q    Type
REMARK                         _______ _______ _______ _____ _____    ______ ____
ROOT
ATOM      1  C   LIG    1       -0.086   0.609   0.440  0.00  0.00    +0.146 A 
ATOM      2  C   LIG    1       -0.729   1.846   0.413  0.00  0.00    +0.047 A 
ATOM      3  C   LIG    1       -2.079   1.924   0.071  0.00  0.00    +0.004 A 
ATOM      4  C   LIG    1       -2.785   0.764  -0.245  0.00  0.00    +0.001 A 
ATOM      5  C   LIG    1       -2.143  -0.474  -0.218  0.00  0.00    +0.018 A 
ATOM      6  C   LIG    1       -0.793  -0.551   0.124  0.00  0.00    +0.101 A 
ENDROOT
BRANCH   6   7
ATOM      7  C   LIG    1       -0.141  -1.854   0.148  0.00  0.00    +0.340 C 
ATOM      8  O   LIG    1        0.796  -2.184   0.869  0.00  0.00    -0.245 OA
BRANCH   7   9
ATOM      9  O   LIG    1       -0.695  -2.715  -0.750  0.00  0.00    -0.477 OA
ATOM     10  H   LIG    1       -0.256  -3.592  -0.734  0.00  0.00    +0.295 HD
ENDBRANCH   7   9
ENDBRANCH   6   7
BRANCH   1  11
ATOM     11  O   LIG    1        1.233   0.554   0.779  0.00  0.00    -0.425 OA
BRANCH  11  12
ATOM     12  C   LIG    1        2.109   0.671  -0.311  0.00  0.00    +0.309 C 
ATOM     13  C   LIG    1        3.530   0.600   0.164  0.00  0.00    +0.136 C 
ATOM     14  O   LIG    1        1.781   0.810  -1.482  0.00  0.00    -0.251 OA
ENDBRANCH  11  12
ENDBRANCH   1  11
TORSDOF 4
