REMARK  Name = ligand.pdb
REMARK  7 active torsions:
REMARK  status: ('A' for Active; 'I' for Inactive)
REMARK    1  A    between atoms: C1_1  and  C6_8
REMARK    2  A    between atoms: C2_3  and  C3_5
REMARK    3  A    between atoms: C2_3  and  C11_13
REMARK    4  A    between atoms: C3_5  and  C4_6
REMARK    5  A    between atoms: C3_5  and  C5_7
REMARK    6  A    between atoms: C6_8  and  C7_9
REMARK    7  A    between atoms: C6_8  and  C8_10
REMARK                            x       y       z     vdW  Elec       q    Type
REMARK                         _______ _______ _______ _____ _____    ______ ____
ROOT
ATOM      1  C8  IBP A 701      27.122  33.217 202.233  0.00  0.00    +0.000 A 
ATOM      2  C9  IBP A 701      25.823  33.737 202.024  0.00  0.00    +0.000 A 
ATOM      3  C10 IBP A 701      25.531  34.561 200.908  0.00  0.00    +0.000 A 
ATOM      4  C11 IBP A 701      26.528  34.899 199.955  0.00  0.00    +0.000 A 
ATOM      5  C12 IBP A 701      27.822  34.380 200.162  0.00  0.00    +0.000 A 
ATOM      6  C13 IBP A 701      28.116  33.554 201.279  0.00  0.00    +0.000 A 
ENDROOT
BRANCH   1   7
ATOM      7  C6  IBP A 701      27.418  32.330 203.466  0.00  0.00    +0.000 C 
ATOM      8  C7  IBP A 701      28.716  32.701 204.189  0.00  0.00    +0.000 C 
BRANCH   7   9
ATOM      9  C1  IBP A 701      27.431  30.874 203.025  0.00  0.00    +0.000 C 
ATOM     10  O1  IBP A 701      26.296  30.252 203.207  0.00  0.00    +0.000 OA
ATOM     11  O2  IBP A 701      28.416  30.312 202.559  0.00  0.00    +0.000 OA
ENDBRANCH   7   9
ENDBRANCH   1   7
BRANCH   4  12
ATOM     12  C2  IBP A 701      26.203  35.794 198.764  0.00  0.00    +0.000 C 
BRANCH  12  13
ATOM     13  C3  IBP A 701      26.008  35.060 197.431  0.00  0.00    +0.000 C 
ATOM     14  C4  IBP A 701      26.424  35.959 196.274  0.00  0.00    +0.000 C 
ATOM     15  C5  IBP A 701      24.569  34.635 197.244  0.00  0.00    +0.000 C 
ENDBRANCH  12  13
ENDBRANCH   4  12
TORSDOF 4
