REMARK VINA RESULT:      -7.4     32.819     35.216
REMARK  Name = ZINC000009107243
REMARK                            x       y       z     vdW  Elec       q    Type
REMARK                         _______ _______ _______ _____ _____    ______ ____
ROOT
ATOM      1  N   LIG    1       21.607  41.196 208.717  0.00  0.00    -0.285 N 
ATOM      2  H   LIG    1       21.533  41.966 208.038  0.00  0.00    +0.155 HD
ATOM      3  C   LIG    1       22.804  41.133 209.385  0.00  0.00    +0.222 C 
ATOM      4  O   LIG    1       22.953  40.384 210.328  0.00  0.00    -0.275 OA
ENDROOT
BRANCH   1   9
ATOM      5  N   LIG    1       16.955  38.139 209.502  0.00  0.00    -0.271 N 
ATOM      6  C   LIG    1       18.131  38.929 209.293  0.00  0.00    +0.040 A 
ATOM      7  C   LIG    1       18.300  39.692 208.130  0.00  0.00    +0.025 A 
ATOM      8  C   LIG    1       19.457  40.442 207.961  0.00  0.00    +0.025 A 
ATOM      9  C   LIG    1       20.439  40.430 208.953  0.00  0.00    +0.034 A 
ATOM     10  C   LIG    1       20.276  39.668 210.113  0.00  0.00    +0.028 A 
ATOM     11  C   LIG    1       19.116  38.920 210.293  0.00  0.00    -0.024 A 
ATOM     12  C   LIG    1       18.926  38.094 211.550  0.00  0.00    +0.046 C 
ATOM     13  C   LIG    1       17.448  38.269 211.942  0.00  0.00    +0.101 C 
ATOM     14  C   LIG    1       16.629  37.737 210.786  0.00  0.00    +0.220 C 
ATOM     15  O   LIG    1       15.702  36.969 210.970  0.00  0.00    -0.275 OA
BRANCH   5  16
ATOM     16  C   LIG    1       16.128  37.667 208.372  0.00  0.00    +0.113 C 
BRANCH  16  18
ATOM     17  C   LIG    1       15.880  35.281 207.762  0.00  0.00    +0.005 C 
ATOM     18  C   LIG    1       16.870  36.453 207.778  0.00  0.00    +0.016 C 
ENDBRANCH  16  18
ENDBRANCH   5  16
ENDBRANCH   1   9
BRANCH   3  19
ATOM     19  C   LIG    1       23.924  42.036 208.902  0.00  0.00    +0.131 C 
BRANCH  19  20
ATOM     20  C   LIG    1       23.548  43.474 209.233  0.00  0.00    -0.035 A 
ATOM     21  C   LIG    1       23.926  44.517 208.385  0.00  0.00    +0.053 A 
ATOM     22  C   LIG    1       23.551  45.831 208.678  0.00  0.00    +0.162 A 
ATOM     23  C   LIG    1       22.792  46.100 209.831  0.00  0.00    +0.161 A 
ATOM     24  C   LIG    1       22.424  45.059 210.676  0.00  0.00    +0.049 A 
ATOM     25  C   LIG    1       22.800  43.752 210.379  0.00  0.00    +0.008 A 
BRANCH  22  26
ATOM     26  O   LIG    1       23.928  46.859 207.821  0.00  0.00    -0.491 OA
ATOM     27  C   LIG    1       25.199  47.549 207.810  0.00  0.00    +0.277 C 
ENDBRANCH  22  26
BRANCH  23  28
ATOM     28  O   LIG    1       22.357  47.361 210.224  0.00  0.00    -0.491 OA
ATOM     29  C   LIG    1       21.317  47.688 211.172  0.00  0.00    +0.277 C 
ENDBRANCH  23  28
ENDBRANCH  19  20
ENDBRANCH   3  19
TORSDOF 7
