MODEL 1
REMARK VINA RESULT:      -7.2      0.000      0.000
REMARK  Name = ZINC000006084756
REMARK                            x       y       z     vdW  Elec       q    Type
REMARK                         _______ _______ _______ _____ _____    ______ ____
ROOT
ATOM      1  C   LIG    1       17.965  37.273 210.948  0.00  0.00    +0.125 C 
ENDROOT
BRANCH   1   2
ATOM      2  N   LIG    1       19.289  37.890 211.197  0.00  0.00    -0.336 N 
ATOM      3  H   LIG    1       20.010  37.622 210.510  0.00  0.00    +0.147 HD
BRANCH   2   4
ATOM      4  C   LIG    1       19.387  39.212 211.630  0.00  0.00    +0.079 C 
ATOM      5  S   LIG    1       18.470  39.738 212.938  0.00  0.00    -0.035 S 
BRANCH   4   6
ATOM      6  C   LIG    1       20.323  40.061 210.883  0.00  0.00    +0.003 A 
ATOM      7  C   LIG    1       20.281  41.454 211.035  0.00  0.00    +0.012 A 
ATOM      8  C   LIG    1       21.157  42.275 210.336  0.00  0.00    +0.024 A 
ATOM      9  C   LIG    1       22.094  41.709 209.469  0.00  0.00    +0.033 A 
ATOM     10  C   LIG    1       22.143  40.323 209.292  0.00  0.00    +0.024 A 
ATOM     11  C   LIG    1       21.265  39.508 209.997  0.00  0.00    +0.012 A 
BRANCH   9  12
ATOM     12  N   LIG    1       22.945  42.603 208.777  0.00  0.00    -0.286 N 
ATOM     13  H   LIG    1       22.573  43.008 207.912  0.00  0.00    +0.155 HD
ATOM     14  C   LIG    1       24.190  43.045 209.141  0.00  0.00    +0.214 C 
ATOM     15  O   LIG    1       24.708  42.709 210.182  0.00  0.00    -0.276 OA
ATOM     16  C   LIG    1       24.859  43.991 208.182  0.00  0.00    +0.109 C 
ENDBRANCH   9  12
ENDBRANCH   4   6
ENDBRANCH   2   4
ENDBRANCH   1   2
BRANCH   1  17
ATOM     17  C   LIG    1       17.617  37.469 209.441  0.00  0.00    +0.104 C 
BRANCH  17  21
ATOM     18  C   LIG    1       16.081  33.821 207.702  0.00  0.00    +0.120 A 
ATOM     19  C   LIG    1       15.827  34.083 209.043  0.00  0.00    +0.046 A 
ATOM     20  C   LIG    1       16.297  35.260 209.616  0.00  0.00    +0.009 A 
ATOM     21  C   LIG    1       17.027  36.182 208.853  0.00  0.00    -0.029 A 
ATOM     22  C   LIG    1       17.251  35.912 207.500  0.00  0.00    +0.009 A 
ATOM     23  C   LIG    1       16.786  34.736 206.921  0.00  0.00    +0.046 A 
BRANCH  18  25
ATOM     24  C   LIG    1       15.003  31.581 207.979  0.00  0.00    +0.277 C 
ATOM     25  O   LIG    1       15.609  32.633 207.193  0.00  0.00    -0.495 OA
ENDBRANCH  18  25
ENDBRANCH  17  21
BRANCH  17  26
ATOM     26  N   LIG    1       16.661  38.591 209.209  0.00  0.00    -0.294 NA
ATOM     27  C   LIG    1       17.303  39.839 208.758  0.00  0.00    +0.085 C 
ATOM     28  C   LIG    1       16.624  40.916 209.611  0.00  0.00    +0.017 C 
ATOM     29  C   LIG    1       15.267  40.290 209.917  0.00  0.00    +0.017 C 
ATOM     30  C   LIG    1       15.676  38.863 210.263  0.00  0.00    +0.085 C 
ENDBRANCH  17  26
ENDBRANCH   1  17
TORSDOF 8
ENDMDL
MODEL 2
REMARK VINA RESULT:      -6.9      1.797      8.991
REMARK  Name = ZINC000006084756
REMARK                            x       y       z     vdW  Elec       q    Type
REMARK                         _______ _______ _______ _____ _____    ______ ____
ROOT
ATOM      1  C   LIG    1       18.913  40.996 208.979  0.00  0.00    +0.125 C 
ENDROOT
BRANCH   1   2
ATOM      2  N   LIG    1       17.996  40.047 208.305  0.00  0.00    -0.336 N 
ATOM      3  H   LIG    1       18.477  39.265 207.834  0.00  0.00    +0.147 HD
BRANCH   2   4
ATOM      4  C   LIG    1       16.785  39.689 208.896  0.00  0.00    +0.079 C 
ATOM      5  S   LIG    1       15.780  40.877 209.537  0.00  0.00    -0.035 S 
BRANCH   4   6
ATOM      6  C   LIG    1       16.475  38.255 208.899  0.00  0.00    +0.003 A 
ATOM      7  C   LIG    1       15.226  37.805 208.446  0.00  0.00    +0.012 A 
ATOM      8  C   LIG    1       14.913  36.452 208.444  0.00  0.00    +0.024 A 
ATOM      9  C   LIG    1       15.851  35.524 208.898  0.00  0.00    +0.033 A 
ATOM     10  C   LIG    1       17.096  35.951 209.368  0.00  0.00    +0.024 A 
ATOM     11  C   LIG    1       17.403  37.306 209.364  0.00  0.00    +0.012 A 
BRANCH   9  12
ATOM     12  N   LIG    1       15.461  34.163 208.883  0.00  0.00    -0.286 N 
ATOM     13  H   LIG    1       14.924  33.834 209.692  0.00  0.00    +0.155 HD
ATOM     14  C   LIG    1       15.659  33.232 207.896  0.00  0.00    +0.214 C 
ATOM     15  O   LIG    1       16.205  33.515 206.854  0.00  0.00    -0.276 OA
ATOM     16  C   LIG    1       15.137  31.851 208.180  0.00  0.00    +0.109 C 
ENDBRANCH   9  12
ENDBRANCH   4   6
ENDBRANCH   2   4
ENDBRANCH   1   2
BRANCH   1  17
ATOM     17  C   LIG    1       20.265  40.261 209.233  0.00  0.00    +0.104 C 
BRANCH  17  21
ATOM     18  C   LIG    1       23.426  43.144 209.858  0.00  0.00    +0.120 A 
ATOM     19  C   LIG    1       23.712  41.976 209.162  0.00  0.00    +0.046 A 
ATOM     20  C   LIG    1       22.705  41.045 208.935  0.00  0.00    +0.009 A 
ATOM     21  C   LIG    1       21.404  41.273 209.405  0.00  0.00    -0.029 A 
ATOM     22  C   LIG    1       21.129  42.465 210.081  0.00  0.00    +0.009 A 
ATOM     23  C   LIG    1       22.133  43.400 210.313  0.00  0.00    +0.046 A 
BRANCH  18  25
ATOM     24  C   LIG    1       25.820  43.822 209.606  0.00  0.00    +0.277 C 
ATOM     25  O   LIG    1       24.465  44.021 210.071  0.00  0.00    -0.495 OA
ENDBRANCH  18  25
ENDBRANCH  17  21
BRANCH  17  26
ATOM     26  N   LIG    1       20.223  39.371 210.430  0.00  0.00    -0.294 NA
ATOM     27  C   LIG    1       19.445  39.921 211.555  0.00  0.00    +0.085 C 
ATOM     28  C   LIG    1       20.337  39.648 212.770  0.00  0.00    +0.017 C 
ATOM     29  C   LIG    1       21.135  38.425 212.328  0.00  0.00    +0.017 C 
ATOM     30  C   LIG    1       21.497  38.815 210.900  0.00  0.00    +0.085 C 
ENDBRANCH  17  26
ENDBRANCH   1  17
TORSDOF 8
ENDMDL
MODEL 3
REMARK VINA RESULT:      -6.8     15.703     18.204
REMARK  Name = ZINC000006084756
REMARK                            x       y       z     vdW  Elec       q    Type
REMARK                         _______ _______ _______ _____ _____    ______ ____
ROOT
ATOM      1  C   LIG    1       25.686  23.189 214.428  0.00  0.00    +0.125 C 
ENDROOT
BRANCH   1   2
ATOM      2  N   LIG    1       26.416  21.948 214.080  0.00  0.00    -0.336 N 
ATOM      3  H   LIG    1       26.638  21.352 214.893  0.00  0.00    +0.147 HD
BRANCH   2   4
ATOM      4  C   LIG    1       26.091  21.231 212.929  0.00  0.00    +0.079 C 
ATOM      5  S   LIG    1       24.950  19.997 213.002  0.00  0.00    -0.035 S 
BRANCH   4   6
ATOM      6  C   LIG    1       26.793  21.635 211.705  0.00  0.00    +0.003 A 
ATOM      7  C   LIG    1       28.195  21.666 211.677  0.00  0.00    +0.012 A 
ATOM      8  C   LIG    1       28.877  22.048 210.529  0.00  0.00    +0.024 A 
ATOM      9  C   LIG    1       28.162  22.407 209.385  0.00  0.00    +0.033 A 
ATOM     10  C   LIG    1       26.764  22.396 209.396  0.00  0.00    +0.024 A 
ATOM     11  C   LIG    1       26.088  22.010 210.547  0.00  0.00    +0.012 A 
BRANCH   9  12
ATOM     12  N   LIG    1       28.919  22.800 208.256  0.00  0.00    -0.286 N 
ATOM     13  H   LIG    1       29.296  23.753 208.269  0.00  0.00    +0.155 HD
ATOM     14  C   LIG    1       29.266  22.051 207.161  0.00  0.00    +0.214 C 
ATOM     15  O   LIG    1       28.956  20.885 207.062  0.00  0.00    -0.276 OA
ATOM     16  C   LIG    1       30.072  22.759 206.108  0.00  0.00    +0.109 C 
ENDBRANCH   9  12
ENDBRANCH   4   6
ENDBRANCH   2   4
ENDBRANCH   1   2
BRANCH   1  17
ATOM     17  C   LIG    1       26.703  24.371 214.396  0.00  0.00    +0.104 C 
BRANCH  17  21
ATOM     18  C   LIG    1       26.911  26.068 210.425  0.00  0.00    +0.120 A 
ATOM     19  C   LIG    1       28.094  25.825 211.113  0.00  0.00    +0.046 A 
ATOM     20  C   LIG    1       28.049  25.263 212.384  0.00  0.00    +0.009 A 
ATOM     21  C   LIG    1       26.820  24.942 212.978  0.00  0.00    -0.029 A 
ATOM     22  C   LIG    1       25.642  25.172 212.261  0.00  0.00    +0.009 A 
ATOM     23  C   LIG    1       25.680  25.736 210.990  0.00  0.00    +0.046 A 
BRANCH  18  25
ATOM     24  C   LIG    1       27.827  26.132 208.098  0.00  0.00    +0.277 C 
ATOM     25  O   LIG    1       27.015  26.645 209.180  0.00  0.00    -0.495 OA
ENDBRANCH  18  25
ENDBRANCH  17  21
BRANCH  17  26
ATOM     26  N   LIG    1       26.337  25.473 215.334  0.00  0.00    -0.294 NA
ATOM     27  C   LIG    1       27.441  25.901 216.212  0.00  0.00    +0.085 C 
ATOM     28  C   LIG    1       26.777  26.016 217.587  0.00  0.00    +0.017 C 
ATOM     29  C   LIG    1       25.325  26.313 217.231  0.00  0.00    +0.017 C 
ATOM     30  C   LIG    1       25.093  25.320 216.098  0.00  0.00    +0.085 C 
ENDBRANCH  17  26
ENDBRANCH   1  17
TORSDOF 8
ENDMDL
MODEL 4
REMARK VINA RESULT:      -6.8      5.107      8.741
REMARK  Name = ZINC000006084756
REMARK                            x       y       z     vdW  Elec       q    Type
REMARK                         _______ _______ _______ _____ _____    ______ ____
ROOT
ATOM      1  C   LIG    1       25.642  43.843 210.948  0.00  0.00    +0.125 C 
ENDROOT
BRANCH   1   2
ATOM      2  N   LIG    1       26.415  42.586 211.077  0.00  0.00    -0.336 N 
ATOM      3  H   LIG    1       27.387  42.657 210.739  0.00  0.00    +0.147 HD
BRANCH   2   4
ATOM      4  C   LIG    1       26.267  41.773 212.200  0.00  0.00    +0.079 C 
ATOM      5  S   LIG    1       27.618  41.336 213.103  0.00  0.00    -0.035 S 
BRANCH   4   6
ATOM      6  C   LIG    1       24.895  41.360 212.514  0.00  0.00    +0.003 A 
ATOM      7  C   LIG    1       24.411  40.125 212.057  0.00  0.00    +0.012 A 
ATOM      8  C   LIG    1       23.114  39.717 212.342  0.00  0.00    +0.024 A 
ATOM      9  C   LIG    1       22.277  40.544 213.093  0.00  0.00    +0.033 A 
ATOM     10  C   LIG    1       22.735  41.785 213.547  0.00  0.00    +0.024 A 
ATOM     11  C   LIG    1       24.034  42.185 213.260  0.00  0.00    +0.012 A 
BRANCH   9  12
ATOM     12  N   LIG    1       20.964  40.074 213.334  0.00  0.00    -0.286 N 
ATOM     13  H   LIG    1       20.304  40.144 212.552  0.00  0.00    +0.155 HD
ATOM     14  C   LIG    1       20.467  39.481 214.466  0.00  0.00    +0.214 C 
ATOM     15  O   LIG    1       21.165  39.262 215.430  0.00  0.00    -0.276 OA
ATOM     16  C   LIG    1       19.013  39.099 214.424  0.00  0.00    +0.109 C 
ENDBRANCH   9  12
ENDBRANCH   4   6
ENDBRANCH   2   4
ENDBRANCH   1   2
BRANCH   1  17
ATOM     17  C   LIG    1       24.937  43.835 209.557  0.00  0.00    +0.104 C 
BRANCH  17  21
ATOM     18  C   LIG    1       21.156  41.743 209.722  0.00  0.00    +0.120 A 
ATOM     19  C   LIG    1       22.236  41.127 209.102  0.00  0.00    +0.046 A 
ATOM     20  C   LIG    1       23.465  41.776 209.055  0.00  0.00    +0.009 A 
ATOM     21  C   LIG    1       23.623  43.047 209.624  0.00  0.00    -0.029 A 
ATOM     22  C   LIG    1       22.531  43.641 210.265  0.00  0.00    +0.009 A 
ATOM     23  C   LIG    1       21.298  42.998 210.314  0.00  0.00    +0.046 A 
BRANCH  18  25
ATOM     24  C   LIG    1       19.143  40.832 208.550  0.00  0.00    +0.277 C 
ATOM     25  O   LIG    1       19.959  41.064 209.722  0.00  0.00    -0.495 OA
ENDBRANCH  18  25
ENDBRANCH  17  21
BRANCH  17  26
ATOM     26  N   LIG    1       24.653  45.208 209.045  0.00  0.00    -0.294 NA
ATOM     27  C   LIG    1       24.669  45.312 207.575  0.00  0.00    +0.085 C 
ATOM     28  C   LIG    1       25.473  46.591 207.318  0.00  0.00    +0.017 C 
ATOM     29  C   LIG    1       25.228  47.396 208.589  0.00  0.00    +0.017 C 
ATOM     30  C   LIG    1       25.394  46.319 209.654  0.00  0.00    +0.085 C 
ENDBRANCH  17  26
ENDBRANCH   1  17
TORSDOF 8
ENDMDL
MODEL 5
REMARK VINA RESULT:      -6.8     26.441     28.189
REMARK  Name = ZINC000006084756
REMARK                            x       y       z     vdW  Elec       q    Type
REMARK                         _______ _______ _______ _____ _____    ______ ____
ROOT
ATOM      1  C   LIG    1       26.215  16.082 194.584  0.00  0.00    +0.125 C 
ENDROOT
BRANCH   1   2
ATOM      2  N   LIG    1       27.182  15.609 193.566  0.00  0.00    -0.336 N 
ATOM      3  H   LIG    1       26.755  15.040 192.818  0.00  0.00    +0.147 HD
BRANCH   2   4
ATOM      4  C   LIG    1       28.212  16.438 193.124  0.00  0.00    +0.079 C 
ATOM      5  S   LIG    1       28.197  17.029 191.549  0.00  0.00    -0.035 S 
BRANCH   4   6
ATOM      6  C   LIG    1       29.255  16.742 194.110  0.00  0.00    +0.003 A 
ATOM      7  C   LIG    1       30.339  15.868 194.278  0.00  0.00    +0.012 A 
ATOM      8  C   LIG    1       31.335  16.137 195.208  0.00  0.00    +0.024 A 
ATOM      9  C   LIG    1       31.261  17.293 195.988  0.00  0.00    +0.033 A 
ATOM     10  C   LIG    1       30.182  18.170 195.846  0.00  0.00    +0.024 A 
ATOM     11  C   LIG    1       29.190  17.896 194.912  0.00  0.00    +0.012 A 
BRANCH   9  12
ATOM     12  N   LIG    1       32.301  17.498 196.926  0.00  0.00    -0.286 N 
ATOM     13  H   LIG    1       32.211  17.006 197.821  0.00  0.00    +0.155 HD
ATOM     14  C   LIG    1       33.450  18.229 196.774  0.00  0.00    +0.214 C 
ATOM     15  O   LIG    1       33.718  18.788 195.735  0.00  0.00    -0.276 OA
ATOM     16  C   LIG    1       34.366  18.271 197.966  0.00  0.00    +0.109 C 
ENDBRANCH   9  12
ENDBRANCH   4   6
ENDBRANCH   2   4
ENDBRANCH   1   2
BRANCH   1  17
ATOM     17  C   LIG    1       26.188  15.040 195.744  0.00  0.00    +0.104 C 
BRANCH  17  21
ATOM     18  C   LIG    1       29.088  16.119 198.763  0.00  0.00    +0.120 A 
ATOM     19  C   LIG    1       27.962  16.917 198.600  0.00  0.00    +0.046 A 
ATOM     20  C   LIG    1       27.009  16.576 197.647  0.00  0.00    +0.009 A 
ATOM     21  C   LIG    1       27.176  15.437 196.847  0.00  0.00    -0.029 A 
ATOM     22  C   LIG    1       28.303  14.634 197.043  0.00  0.00    +0.009 A 
ATOM     23  C   LIG    1       29.261  14.970 197.993  0.00  0.00    +0.046 A 
BRANCH  18  25
ATOM     24  C   LIG    1       30.335  17.891 200.014  0.00  0.00    +0.277 C 
ATOM     25  O   LIG    1       30.008  16.515 199.707  0.00  0.00    -0.495 OA
ENDBRANCH  18  25
ENDBRANCH  17  21
BRANCH  17  26
ATOM     26  N   LIG    1       24.831  14.878 196.343  0.00  0.00    -0.294 NA
ATOM     27  C   LIG    1       24.403  13.474 196.482  0.00  0.00    +0.085 C 
ATOM     28  C   LIG    1       22.956  13.492 195.980  0.00  0.00    +0.017 C 
ATOM     29  C   LIG    1       22.524  14.927 196.264  0.00  0.00    +0.017 C 
ATOM     30  C   LIG    1       23.749  15.700 195.788  0.00  0.00    +0.085 C 
ENDBRANCH  17  26
ENDBRANCH   1  17
TORSDOF 8
ENDMDL
MODEL 6
REMARK VINA RESULT:      -6.8     30.912     33.343
REMARK  Name = ZINC000006084756
REMARK                            x       y       z     vdW  Elec       q    Type
REMARK                         _______ _______ _______ _____ _____    ______ ____
ROOT
ATOM      1  C   LIG    1       37.007  18.255 187.789  0.00  0.00    +0.125 C 
ENDROOT
BRANCH   1   2
ATOM      2  N   LIG    1       37.043  16.921 188.433  0.00  0.00    -0.336 N 
ATOM      3  H   LIG    1       36.959  16.135 187.770  0.00  0.00    +0.147 HD
BRANCH   2   4
ATOM      4  C   LIG    1       37.907  16.669 189.498  0.00  0.00    +0.079 C 
ATOM      5  S   LIG    1       39.520  16.297 189.200  0.00  0.00    -0.035 S 
BRANCH   4   6
ATOM      6  C   LIG    1       37.315  16.762 190.837  0.00  0.00    +0.003 A 
ATOM      7  C   LIG    1       36.085  16.141 191.106  0.00  0.00    +0.012 A 
ATOM      8  C   LIG    1       35.507  16.219 192.366  0.00  0.00    +0.024 A 
ATOM      9  C   LIG    1       36.154  16.924 193.382  0.00  0.00    +0.033 A 
ATOM     10  C   LIG    1       37.373  17.562 193.133  0.00  0.00    +0.024 A 
ATOM     11  C   LIG    1       37.947  17.477 191.870  0.00  0.00    +0.012 A 
BRANCH   9  12
ATOM     12  N   LIG    1       35.502  16.976 194.638  0.00  0.00    -0.286 N 
ATOM     13  H   LIG    1       35.647  16.175 195.260  0.00  0.00    +0.155 HD
ATOM     14  C   LIG    1       34.741  17.990 195.159  0.00  0.00    +0.214 C 
ATOM     15  O   LIG    1       34.563  19.027 194.560  0.00  0.00    -0.276 OA
ATOM     16  C   LIG    1       34.164  17.744 196.525  0.00  0.00    +0.109 C 
ENDBRANCH   9  12
ENDBRANCH   4   6
ENDBRANCH   2   4
ENDBRANCH   1   2
BRANCH   1  17
ATOM     17  C   LIG    1       36.096  19.182 188.651  0.00  0.00    +0.104 C 
BRANCH  17  21
ATOM     18  C   LIG    1       38.425  21.903 191.073  0.00  0.00    +0.120 A 
ATOM     19  C   LIG    1       39.030  21.290 189.983  0.00  0.00    +0.046 A 
ATOM     20  C   LIG    1       38.293  20.426 189.181  0.00  0.00    +0.009 A 
ATOM     21  C   LIG    1       36.945  20.166 189.465  0.00  0.00    -0.029 A 
ATOM     22  C   LIG    1       36.347  20.810 190.551  0.00  0.00    +0.009 A 
ATOM     23  C   LIG    1       37.079  21.675 191.359  0.00  0.00    +0.046 A 
BRANCH  18  25
ATOM     24  C   LIG    1       40.452  22.345 192.469  0.00  0.00    +0.277 C 
ATOM     25  O   LIG    1       39.207  22.733 191.843  0.00  0.00    -0.495 OA
ENDBRANCH  18  25
ENDBRANCH  17  21
BRANCH  17  26
ATOM     26  N   LIG    1       35.115  19.951 187.831  0.00  0.00    -0.294 NA
ATOM     27  C   LIG    1       34.022  19.129 187.281  0.00  0.00    +0.085 C 
ATOM     28  C   LIG    1       33.916  19.604 185.828  0.00  0.00    +0.017 C 
ATOM     29  C   LIG    1       34.437  21.035 185.908  0.00  0.00    +0.017 C 
ATOM     30  C   LIG    1       35.655  20.852 186.806  0.00  0.00    +0.085 C 
ENDBRANCH  17  26
ENDBRANCH   1  17
TORSDOF 8
ENDMDL
MODEL 7
REMARK VINA RESULT:      -6.8      5.592      9.170
REMARK  Name = ZINC000006084756
REMARK                            x       y       z     vdW  Elec       q    Type
REMARK                         _______ _______ _______ _____ _____    ______ ____
ROOT
ATOM      1  C   LIG    1       23.644  41.517 210.689  0.00  0.00    +0.125 C 
ENDROOT
BRANCH   1   2
ATOM      2  N   LIG    1       24.269  41.913 211.972  0.00  0.00    -0.336 N 
ATOM      3  H   LIG    1       23.935  41.370 212.784  0.00  0.00    +0.147 HD
BRANCH   2   4
ATOM      4  C   LIG    1       25.623  42.239 212.032  0.00  0.00    +0.079 C 
ATOM      5  S   LIG    1       26.744  41.086 212.526  0.00  0.00    -0.035 S 
BRANCH   4   6
ATOM      6  C   LIG    1       25.968  43.609 211.636  0.00  0.00    +0.003 A 
ATOM      7  C   LIG    1       25.550  44.693 212.422  0.00  0.00    +0.012 A 
ATOM      8  C   LIG    1       25.865  45.998 212.063  0.00  0.00    +0.024 A 
ATOM      9  C   LIG    1       26.607  46.238 210.906  0.00  0.00    +0.033 A 
ATOM     10  C   LIG    1       27.023  45.173 210.101  0.00  0.00    +0.024 A 
ATOM     11  C   LIG    1       26.707  43.870 210.468  0.00  0.00    +0.012 A 
BRANCH   9  12
ATOM     12  N   LIG    1       26.880  47.591 210.591  0.00  0.00    -0.286 N 
ATOM     13  H   LIG    1       27.849  47.814 210.341  0.00  0.00    +0.155 HD
ATOM     14  C   LIG    1       26.002  48.641 210.521  0.00  0.00    +0.214 C 
ATOM     15  O   LIG    1       24.815  48.494 210.710  0.00  0.00    -0.276 OA
ATOM     16  C   LIG    1       26.599  49.976 210.172  0.00  0.00    +0.109 C 
ENDBRANCH   9  12
ENDBRANCH   4   6
ENDBRANCH   2   4
ENDBRANCH   1   2
BRANCH   1  17
ATOM     17  C   LIG    1       22.456  42.489 210.411  0.00  0.00    +0.104 C 
BRANCH  17  21
ATOM     18  C   LIG    1       23.833  45.999 208.296  0.00  0.00    +0.120 A 
ATOM     19  C   LIG    1       24.157  44.745 207.794  0.00  0.00    +0.046 A 
ATOM     20  C   LIG    1       23.708  43.604 208.449  0.00  0.00    +0.009 A 
ATOM     21  C   LIG    1       22.934  43.709 209.614  0.00  0.00    -0.029 A 
ATOM     22  C   LIG    1       22.599  44.979 210.090  0.00  0.00    +0.009 A 
ATOM     23  C   LIG    1       23.046  46.125 209.440  0.00  0.00    +0.046 A 
BRANCH  18  25
ATOM     24  C   LIG    1       25.686  47.240 207.163  0.00  0.00    +0.277 C 
ATOM     25  O   LIG    1       24.321  47.093 207.618  0.00  0.00    -0.495 OA
ENDBRANCH  18  25
ENDBRANCH  17  21
BRANCH  17  26
ATOM     26  N   LIG    1       21.336  41.836 209.672  0.00  0.00    -0.294 NA
ATOM     27  C   LIG    1       20.120  41.640 210.482  0.00  0.00    +0.085 C 
ATOM     28  C   LIG    1       19.696  40.207 210.146  0.00  0.00    +0.017 C 
ATOM     29  C   LIG    1       20.265  40.014 208.744  0.00  0.00    +0.017 C 
ATOM     30  C   LIG    1       21.652  40.625 208.905  0.00  0.00    +0.085 C 
ENDBRANCH  17  26
ENDBRANCH   1  17
TORSDOF 8
ENDMDL
MODEL 8
REMARK VINA RESULT:      -6.7      5.619     11.039
REMARK  Name = ZINC000006084756
REMARK                            x       y       z     vdW  Elec       q    Type
REMARK                         _______ _______ _______ _____ _____    ______ ____
ROOT
ATOM      1  C   LIG    1       26.997  46.433 211.450  0.00  0.00    +0.125 C 
ENDROOT
BRANCH   1   2
ATOM      2  N   LIG    1       27.692  45.395 210.654  0.00  0.00    -0.336 N 
ATOM      3  H   LIG    1       28.679  45.616 210.449  0.00  0.00    +0.147 HD
BRANCH   2   4
ATOM      4  C   LIG    1       27.457  44.041 210.892  0.00  0.00    +0.079 C 
ATOM      5  S   LIG    1       28.594  43.127 211.731  0.00  0.00    -0.035 S 
BRANCH   4   6
ATOM      6  C   LIG    1       26.189  43.512 210.379  0.00  0.00    +0.003 A 
ATOM      7  C   LIG    1       25.209  43.050 211.269  0.00  0.00    +0.012 A 
ATOM      8  C   LIG    1       24.002  42.544 210.803  0.00  0.00    +0.024 A 
ATOM      9  C   LIG    1       23.757  42.493 209.430  0.00  0.00    +0.033 A 
ATOM     10  C   LIG    1       24.726  42.935 208.524  0.00  0.00    +0.024 A 
ATOM     11  C   LIG    1       25.929  43.442 208.998  0.00  0.00    +0.012 A 
BRANCH   9  12
ATOM     12  N   LIG    1       22.514  41.951 209.022  0.00  0.00    -0.286 N 
ATOM     13  H   LIG    1       21.851  42.606 208.595  0.00  0.00    +0.155 HD
ATOM     14  C   LIG    1       22.097  40.647 209.074  0.00  0.00    +0.214 C 
ATOM     15  O   LIG    1       22.817  39.762 209.479  0.00  0.00    -0.276 OA
ATOM     16  C   LIG    1       20.704  40.381 208.576  0.00  0.00    +0.109 C 
ENDBRANCH   9  12
ENDBRANCH   4   6
ENDBRANCH   2   4
ENDBRANCH   1   2
BRANCH   1  17
ATOM     17  C   LIG    1       26.005  47.180 210.506  0.00  0.00    +0.104 C 
BRANCH  17  21
ATOM     18  C   LIG    1       21.983  45.680 211.020  0.00  0.00    +0.120 A 
ATOM     19  C   LIG    1       22.736  45.978 212.149  0.00  0.00    +0.046 A 
ATOM     20  C   LIG    1       24.025  46.479 212.004  0.00  0.00    +0.009 A 
ATOM     21  C   LIG    1       24.572  46.682 210.729  0.00  0.00    -0.029 A 
ATOM     22  C   LIG    1       23.790  46.399 209.606  0.00  0.00    +0.009 A 
ATOM     23  C   LIG    1       22.500  45.896 209.744  0.00  0.00    +0.046 A 
BRANCH  18  25
ATOM     24  C   LIG    1       19.666  45.839 211.950  0.00  0.00    +0.277 C 
ATOM     25  O   LIG    1       20.721  45.168 211.223  0.00  0.00    -0.495 OA
ENDBRANCH  18  25
ENDBRANCH  17  21
BRANCH  17  26
ATOM     26  N   LIG    1       26.038  48.660 210.688  0.00  0.00    -0.294 NA
ATOM     27  C   LIG    1       25.968  49.419 209.426  0.00  0.00    +0.085 C 
ATOM     28  C   LIG    1       27.045  50.494 209.597  0.00  0.00    +0.017 C 
ATOM     29  C   LIG    1       27.109  50.661 211.112  0.00  0.00    +0.017 C 
ATOM     30  C   LIG    1       27.079  49.206 211.567  0.00  0.00    +0.085 C 
ENDBRANCH  17  26
ENDBRANCH   1  17
TORSDOF 8
ENDMDL
MODEL 9
REMARK VINA RESULT:      -6.6      4.617     10.638
REMARK  Name = ZINC000006084756
REMARK                            x       y       z     vdW  Elec       q    Type
REMARK                         _______ _______ _______ _____ _____    ______ ____
ROOT
ATOM      1  C   LIG    1       24.060  45.579 211.387  0.00  0.00    +0.125 C 
ENDROOT
BRANCH   1   2
ATOM      2  N   LIG    1       23.883  44.121 211.584  0.00  0.00    -0.336 N 
ATOM      3  H   LIG    1       23.073  43.875 212.174  0.00  0.00    +0.147 HD
BRANCH   2   4
ATOM      4  C   LIG    1       24.106  43.230 210.535  0.00  0.00    +0.079 C 
ATOM      5  S   LIG    1       25.595  43.210 209.753  0.00  0.00    -0.035 S 
BRANCH   4   6
ATOM      6  C   LIG    1       22.984  42.347 210.197  0.00  0.00    +0.003 A 
ATOM      7  C   LIG    1       21.707  42.602 210.720  0.00  0.00    +0.012 A 
ATOM      8  C   LIG    1       20.632  41.777 210.413  0.00  0.00    +0.024 A 
ATOM      9  C   LIG    1       20.821  40.678 209.574  0.00  0.00    +0.033 A 
ATOM     10  C   LIG    1       22.088  40.397 209.053  0.00  0.00    +0.024 A 
ATOM     11  C   LIG    1       23.157  41.229 209.362  0.00  0.00    +0.012 A 
BRANCH   9  12
ATOM     12  N   LIG    1       19.687  39.871 209.315  0.00  0.00    -0.286 N 
ATOM     13  H   LIG    1       19.416  39.216 210.056  0.00  0.00    +0.155 HD
ATOM     14  C   LIG    1       18.864  39.887 208.220  0.00  0.00    +0.214 C 
ATOM     15  O   LIG    1       19.024  40.672 207.313  0.00  0.00    -0.276 OA
ATOM     16  C   LIG    1       17.739  38.890 208.227  0.00  0.00    +0.109 C 
ENDBRANCH   9  12
ENDBRANCH   4   6
ENDBRANCH   2   4
ENDBRANCH   1   2
BRANCH   1  17
ATOM     17  C   LIG    1       22.996  46.058 210.352  0.00  0.00    +0.104 C 
BRANCH  17  21
ATOM     18  C   LIG    1       20.552  49.231 211.981  0.00  0.00    +0.120 A 
ATOM     19  C   LIG    1       19.971  47.991 211.746  0.00  0.00    +0.046 A 
ATOM     20  C   LIG    1       20.745  46.953 211.240  0.00  0.00    +0.009 A 
ATOM     21  C   LIG    1       22.105  47.147 210.961  0.00  0.00    -0.029 A 
ATOM     22  C   LIG    1       22.677  48.395 211.227  0.00  0.00    +0.009 A 
ATOM     23  C   LIG    1       21.908  49.438 211.732  0.00  0.00    +0.046 A 
BRANCH  18  25
ATOM     24  C   LIG    1       18.321  50.078 212.733  0.00  0.00    +0.277 C 
ATOM     25  O   LIG    1       19.735  50.228 212.463  0.00  0.00    -0.495 OA
ENDBRANCH  18  25
ENDBRANCH  17  21
BRANCH  17  26
ATOM     26  N   LIG    1       23.607  46.579 209.094  0.00  0.00    -0.294 NA
ATOM     27  C   LIG    1       23.318  45.758 207.905  0.00  0.00    +0.085 C 
ATOM     28  C   LIG    1       24.676  45.657 207.204  0.00  0.00    +0.017 C 
ATOM     29  C   LIG    1       25.379  46.933 207.657  0.00  0.00    +0.017 C 
ATOM     30  C   LIG    1       25.027  46.949 209.140  0.00  0.00    +0.085 C 
ENDBRANCH  17  26
ENDBRANCH   1  17
TORSDOF 8
ENDMDL
