REMARK VINA RESULT:      -7.1     25.070     28.209
REMARK  Name = ZINC000000608130
REMARK                            x       y       z     vdW  Elec       q    Type
REMARK                         _______ _______ _______ _____ _____    ______ ____
ROOT
ATOM      1  C   LIG    1       18.211  37.799 211.612  0.00  0.00    +0.264 C 
ATOM      2  C   LIG    1       17.097  38.121 212.646  0.00  0.00    +0.145 C 
ATOM      3  C   LIG    1       16.126  39.256 212.273  0.00  0.00    +0.059 C 
ATOM      4  C   LIG    1       17.761  38.515 213.974  0.00  0.00    +0.059 C 
ATOM      5  O   LIG    1       16.323  36.931 212.897  0.00  0.00    -0.482 OA
ATOM      6  C   LIG    1       16.040  36.013 211.923  0.00  0.00    +0.132 A 
ATOM      7  C   LIG    1       15.133  35.001 212.244  0.00  0.00    +0.047 A 
ATOM      8  C   LIG    1       14.801  34.042 211.297  0.00  0.00    +0.015 A 
ATOM      9  C   LIG    1       15.375  34.089 210.018  0.00  0.00    +0.018 A 
ATOM     10  C   LIG    1       16.288  35.119 209.724  0.00  0.00    +0.149 A 
ATOM     11  O   LIG    1       16.852  35.179 208.461  0.00  0.00    -0.422 OA
ATOM     12  C   LIG    1       16.558  34.286 207.479  0.00  0.00    +0.337 A 
ATOM     13  O   LIG    1       17.101  34.442 206.397  0.00  0.00    -0.245 OA
ATOM     14  C   LIG    1       15.632  33.225 207.775  0.00  0.00    +0.092 A 
ATOM     15  C   LIG    1       15.057  33.123 209.000  0.00  0.00    +0.018 A 
ATOM     16  C   LIG    1       16.643  36.087 210.666  0.00  0.00    +0.081 A 
ATOM     17  C   LIG    1       17.631  37.186 210.310  0.00  0.00    +0.258 C 
ENDROOT
BRANCH   1  18
ATOM     18  O   LIG    1       18.959  39.028 211.293  0.00  0.00    -0.453 OA
BRANCH  18  19
ATOM     19  C   LIG    1       20.302  39.035 211.354  0.00  0.00    +0.310 C 
ATOM     20  O   LIG    1       20.911  37.999 211.617  0.00  0.00    -0.251 OA
BRANCH  19  21
ATOM     21  C   LIG    1       21.045  40.370 211.181  0.00  0.00    +0.094 C 
ATOM     22  C   LIG    1       20.065  41.561 211.163  0.00  0.00    +0.019 C 
BRANCH  21  24
ATOM     23  C   LIG    1       21.176  40.333 208.598  0.00  0.00    +0.004 C 
ATOM     24  C   LIG    1       21.945  40.346 209.928  0.00  0.00    +0.011 C 
ENDBRANCH  21  24
ENDBRANCH  19  21
ENDBRANCH  18  19
ENDBRANCH   1  18
BRANCH  17  25
ATOM     25  O   LIG    1       16.878  38.185 209.563  0.00  0.00    -0.453 OA
BRANCH  25  26
ATOM     26  C   LIG    1       17.442  38.894 208.586  0.00  0.00    +0.305 C 
ATOM     27  O   LIG    1       17.977  38.350 207.626  0.00  0.00    -0.251 OA
ATOM     28  C   LIG    1       17.423  40.403 208.713  0.00  0.00    +0.136 C 
ENDBRANCH  25  26
ENDBRANCH  17  25
TORSDOF 6
