REMARK VINA RESULT:      -8.1     23.294     26.000
REMARK  Name = ZINC000006083105
REMARK                            x       y       z     vdW  Elec       q    Type
REMARK                         _______ _______ _______ _____ _____    ______ ____
ROOT
ATOM      1  C   LIG    1       18.550  39.092 211.069  0.00  0.00    +0.083 C 
ENDROOT
BRANCH   1   2
ATOM      2  C   LIG    1       17.774  37.840 210.709  0.00  0.00    +0.111 A 
ATOM      3  N   LIG    1       17.114  37.219 211.749  0.00  0.00    -0.310 N 
ATOM      4  H   LIG    1       17.213  37.571 212.711  0.00  0.00    +0.170 HD
ATOM      5  C   LIG    1       16.398  36.072 211.590  0.00  0.00    +0.260 A 
ATOM      6  O   LIG    1       15.883  35.627 212.615  0.00  0.00    -0.267 OA
ATOM      7  C   LIG    1       16.344  35.525 210.266  0.00  0.00    +0.075 A 
ATOM      8  C   LIG    1       15.690  34.365 209.777  0.00  0.00    -0.023 A 
ATOM      9  C   LIG    1       14.876  33.411 210.633  0.00  0.00    +0.037 C 
ATOM     10  C   LIG    1       14.024  32.534 209.695  0.00  0.00    +0.005 C 
ATOM     11  C   LIG    1       14.868  31.948 208.548  0.00  0.00    +0.005 C 
ATOM     12  C   LIG    1       15.350  33.052 207.589  0.00  0.00    +0.043 C 
ATOM     13  C   LIG    1       15.903  34.173 208.441  0.00  0.00    -0.004 A 
ATOM     14  S   LIG    1       16.892  35.419 207.750  0.00  0.00    -0.073 S 
ATOM     15  C   LIG    1       17.029  36.196 209.283  0.00  0.00    +0.116 A 
ATOM     16  N   LIG    1       17.752  37.363 209.520  0.00  0.00    -0.227 NA
ENDBRANCH   1   2
BRANCH   1  17
ATOM     17  C   LIG    1       20.055  38.808 210.814  0.00  0.00    +0.104 C 
BRANCH  17  20
ATOM     18  N   LIG    1       21.630  40.678 210.567  0.00  0.00    -0.285 N 
ATOM     19  H   LIG    1       21.984  40.338 211.467  0.00  0.00    +0.155 HD
ATOM     20  C   LIG    1       20.621  39.952 209.997  0.00  0.00    +0.218 C 
ATOM     21  O   LIG    1       20.185  40.236 208.900  0.00  0.00    -0.275 OA
BRANCH  18  25
ATOM     22  C   LIG    1       23.350  44.155 208.995  0.00  0.00    +0.121 A 
ATOM     23  C   LIG    1       22.225  44.238 209.821  0.00  0.00    +0.047 A 
ATOM     24  C   LIG    1       21.670  43.072 210.341  0.00  0.00    +0.027 A 
ATOM     25  C   LIG    1       22.248  41.837 210.035  0.00  0.00    +0.034 A 
ATOM     26  C   LIG    1       23.369  41.755 209.203  0.00  0.00    +0.027 A 
ATOM     27  C   LIG    1       23.921  42.922 208.685  0.00  0.00    +0.047 A 
BRANCH  22  28
ATOM     28  O   LIG    1       23.943  45.276 208.454  0.00  0.00    -0.492 OA
BRANCH  28  30
ATOM     29  C   LIG    1       25.450  46.732 207.384  0.00  0.00    +0.048 C 
ATOM     30  C   LIG    1       25.090  45.261 207.580  0.00  0.00    +0.225 C 
ENDBRANCH  28  30
ENDBRANCH  22  28
ENDBRANCH  18  25
ENDBRANCH  17  20
ENDBRANCH   1  17
TORSDOF 6
