MODEL 1
REMARK VINA RESULT:      -7.9      0.000      0.000
REMARK  Name = ZINC000006087320
REMARK                            x       y       z     vdW  Elec       q    Type
REMARK                         _______ _______ _______ _____ _____    ______ ____
ROOT
ATOM      1  C   LIG    1       16.764  38.451 208.328  0.00  0.00    +0.222 C 
ENDROOT
BRANCH   1   2
ATOM      2  N   LIG    1       18.019  38.747 209.060  0.00  0.00    -0.290 N 
ATOM      3  C   LIG    1       18.983  39.569 208.503  0.00  0.00    +0.262 A 
ATOM      4  O   LIG    1       18.759  40.025 207.378  0.00  0.00    -0.267 OA
ATOM      5  C   LIG    1       20.187  39.822 209.263  0.00  0.00    +0.068 A 
ATOM      6  C   LIG    1       21.202  40.666 208.786  0.00  0.00    +0.035 A 
ATOM      7  C   LIG    1       22.345  40.878 209.549  0.00  0.00    +0.043 A 
ATOM      8 CL   LIG    1       23.595  41.917 208.957  0.00  0.00    -0.083 Cl
ATOM      9  C   LIG    1       22.491  40.255 210.791  0.00  0.00    +0.042 A 
ATOM     10  C   LIG    1       21.489  39.419 211.267  0.00  0.00    +0.068 A 
ATOM     11 CL   LIG    1       21.706  38.661 212.815  0.00  0.00    -0.081 Cl
ATOM     12  C   LIG    1       20.322  39.190 210.506  0.00  0.00    +0.096 A 
ATOM     13  N   LIG    1       19.296  38.341 210.965  0.00  0.00    -0.235 NA
ATOM     14  C   LIG    1       18.234  38.137 210.283  0.00  0.00    +0.203 A 
ENDBRANCH   1   2
BRANCH   1  17
ATOM     15  N   LIG    1       15.598  36.305 208.656  0.00  0.00    -0.284 N 
ATOM     16  H   LIG    1       14.922  36.931 209.130  0.00  0.00    +0.155 HD
ATOM     17  C   LIG    1       16.692  36.946 208.129  0.00  0.00    +0.237 C 
ATOM     18  O   LIG    1       17.552  36.349 207.517  0.00  0.00    -0.274 OA
BRANCH  15  20
ATOM     19  C   LIG    1       15.080  34.313 209.930  0.00  0.00    -0.026 A 
ATOM     20  C   LIG    1       15.273  34.923 208.677  0.00  0.00    +0.037 A 
ATOM     21  C   LIG    1       15.123  34.189 207.496  0.00  0.00    +0.023 A 
ATOM     22  C   LIG    1       14.805  32.838 207.560  0.00  0.00    +0.002 A 
ATOM     23  C   LIG    1       14.629  32.220 208.795  0.00  0.00    +0.000 A 
ATOM     24  C   LIG    1       14.765  32.956 209.969  0.00  0.00    +0.005 A 
BRANCH  19  26
ATOM     25  C   LIG    1       16.704  35.051 211.615  0.00  0.00    +0.009 C 
ATOM     26  C   LIG    1       15.214  35.069 211.247  0.00  0.00    +0.033 C 
ENDBRANCH  19  26
ENDBRANCH  15  20
ENDBRANCH   1  17
TORSDOF 4
ENDMDL
MODEL 2
REMARK VINA RESULT:      -7.8     25.549     27.481
REMARK  Name = ZINC000006087320
REMARK                            x       y       z     vdW  Elec       q    Type
REMARK                         _______ _______ _______ _____ _____    ______ ____
ROOT
ATOM      1  C   LIG    1       23.313  45.110 181.912  0.00  0.00    +0.222 C 
ENDROOT
BRANCH   1   2
ATOM      2  N   LIG    1       22.613  46.188 182.651  0.00  0.00    -0.290 N 
ATOM      3  C   LIG    1       23.270  47.361 182.977  0.00  0.00    +0.262 A 
ATOM      4  O   LIG    1       24.455  47.460 182.643  0.00  0.00    -0.267 OA
ATOM      5  C   LIG    1       22.536  48.378 183.698  0.00  0.00    +0.068 A 
ATOM      6  C   LIG    1       23.117  49.608 184.043  0.00  0.00    +0.035 A 
ATOM      7  C   LIG    1       22.375  50.555 184.740  0.00  0.00    +0.043 A 
ATOM      8 CL   LIG    1       23.095  52.069 185.166  0.00  0.00    -0.083 Cl
ATOM      9  C   LIG    1       21.052  50.291 185.101  0.00  0.00    +0.042 A 
ATOM     10  C   LIG    1       20.472  49.074 184.762  0.00  0.00    +0.068 A 
ATOM     11 CL   LIG    1       18.825  48.781 185.227  0.00  0.00    -0.081 Cl
ATOM     12  C   LIG    1       21.210  48.099 184.055  0.00  0.00    +0.096 A 
ATOM     13  N   LIG    1       20.647  46.857 183.706  0.00  0.00    -0.235 NA
ATOM     14  C   LIG    1       21.308  45.974 183.060  0.00  0.00    +0.203 A 
ENDBRANCH   1   2
BRANCH   1  17
ATOM     15  N   LIG    1       24.135  43.982 183.943  0.00  0.00    -0.284 N 
ATOM     16  H   LIG    1       24.606  44.896 184.065  0.00  0.00    +0.155 HD
ATOM     17  C   LIG    1       23.357  43.888 182.815  0.00  0.00    +0.237 C 
ATOM     18  O   LIG    1       22.719  42.890 182.556  0.00  0.00    -0.274 OA
BRANCH  15  20
ATOM     19  C   LIG    1       25.580  42.238 184.798  0.00  0.00    -0.026 A 
ATOM     20  C   LIG    1       24.413  43.011 184.941  0.00  0.00    +0.037 A 
ATOM     21  C   LIG    1       23.576  42.839 186.048  0.00  0.00    +0.023 A 
ATOM     22  C   LIG    1       23.884  41.877 187.003  0.00  0.00    +0.002 A 
ATOM     23  C   LIG    1       25.026  41.095 186.862  0.00  0.00    +0.000 A 
ATOM     24  C   LIG    1       25.866  41.277 185.767  0.00  0.00    +0.005 A 
BRANCH  19  26
ATOM     25  C   LIG    1       26.042  41.446 182.522  0.00  0.00    +0.009 C 
ATOM     26  C   LIG    1       26.537  42.395 183.622  0.00  0.00    +0.033 C 
ENDBRANCH  19  26
ENDBRANCH  15  20
ENDBRANCH   1  17
TORSDOF 4
ENDMDL
MODEL 3
REMARK VINA RESULT:      -7.6     27.310     29.217
REMARK  Name = ZINC000006087320
REMARK                            x       y       z     vdW  Elec       q    Type
REMARK                         _______ _______ _______ _____ _____    ______ ____
ROOT
ATOM      1  C   LIG    1       22.945  45.378 182.384  0.00  0.00    +0.222 C 
ENDROOT
BRANCH   1   2
ATOM      2  N   LIG    1       24.135  45.517 181.509  0.00  0.00    -0.290 N 
ATOM      3  C   LIG    1       25.291  46.112 181.981  0.00  0.00    +0.262 A 
ATOM      4  O   LIG    1       25.282  46.530 183.143  0.00  0.00    -0.267 OA
ATOM      5  C   LIG    1       26.420  46.219 181.083  0.00  0.00    +0.068 A 
ATOM      6  C   LIG    1       27.640  46.783 181.488  0.00  0.00    +0.035 A 
ATOM      7  C   LIG    1       28.697  46.870 180.590  0.00  0.00    +0.043 A 
ATOM      8 CL   LIG    1       30.198  47.567 181.092  0.00  0.00    -0.083 Cl
ATOM      9  C   LIG    1       28.555  46.399 179.282  0.00  0.00    +0.042 A 
ATOM     10  C   LIG    1       27.349  45.841 178.876  0.00  0.00    +0.068 A 
ATOM     11 CL   LIG    1       27.208  45.267 177.243  0.00  0.00    -0.081 Cl
ATOM     12  C   LIG    1       26.263  45.745 179.774  0.00  0.00    +0.096 A 
ATOM     13  N   LIG    1       25.029  45.190 179.383  0.00  0.00    -0.235 NA
ATOM     14  C   LIG    1       24.045  45.094 180.194  0.00  0.00    +0.203 A 
ENDBRANCH   1   2
BRANCH   1  17
ATOM     15  N   LIG    1       23.964  44.084 184.217  0.00  0.00    -0.284 N 
ATOM     16  H   LIG    1       24.426  44.995 184.386  0.00  0.00    +0.155 HD
ATOM     17  C   LIG    1       23.091  44.077 183.156  0.00  0.00    +0.237 C 
ATOM     18  O   LIG    1       22.451  43.092 182.856  0.00  0.00    -0.274 OA
BRANCH  15  20
ATOM     19  C   LIG    1       25.512  42.308 184.772  0.00  0.00    -0.026 A 
ATOM     20  C   LIG    1       24.347  43.030 185.087  0.00  0.00    +0.037 A 
ATOM     21  C   LIG    1       23.611  42.728 186.238  0.00  0.00    +0.023 A 
ATOM     22  C   LIG    1       24.020  41.688 187.065  0.00  0.00    +0.002 A 
ATOM     23  C   LIG    1       25.162  40.957 186.752  0.00  0.00    +0.000 A 
ATOM     24  C   LIG    1       25.901  41.268 185.614  0.00  0.00    +0.005 A 
BRANCH  19  26
ATOM     25  C   LIG    1       25.950  41.590 182.467  0.00  0.00    +0.009 C 
ATOM     26  C   LIG    1       26.361  42.607 183.542  0.00  0.00    +0.033 C 
ENDBRANCH  19  26
ENDBRANCH  15  20
ENDBRANCH   1  17
TORSDOF 4
ENDMDL
MODEL 4
REMARK VINA RESULT:      -7.5     25.753     27.732
REMARK  Name = ZINC000006087320
REMARK                            x       y       z     vdW  Elec       q    Type
REMARK                         _______ _______ _______ _____ _____    ______ ____
ROOT
ATOM      1  C   LIG    1       21.979  46.008 182.694  0.00  0.00    +0.222 C 
ENDROOT
BRANCH   1   2
ATOM      2  N   LIG    1       21.304  47.178 183.305  0.00  0.00    -0.290 N 
ATOM      3  C   LIG    1       21.395  48.429 182.720  0.00  0.00    +0.262 A 
ATOM      4  O   LIG    1       22.067  48.526 181.689  0.00  0.00    -0.267 OA
ATOM      5  C   LIG    1       20.716  49.534 183.361  0.00  0.00    +0.068 A 
ATOM      6  C   LIG    1       20.732  50.829 182.821  0.00  0.00    +0.035 A 
ATOM      7  C   LIG    1       20.069  51.862 183.473  0.00  0.00    +0.043 A 
ATOM      8 CL   LIG    1       20.093  53.457 182.805  0.00  0.00    -0.083 Cl
ATOM      9  C   LIG    1       19.385  51.621 184.667  0.00  0.00    +0.042 A 
ATOM     10  C   LIG    1       19.366  50.340 185.206  0.00  0.00    +0.068 A 
ATOM     11 CL   LIG    1       18.506  50.078 186.692  0.00  0.00    -0.081 Cl
ATOM     12  C   LIG    1       20.035  49.278 184.558  0.00  0.00    +0.096 A 
ATOM     13  N   LIG    1       20.036  47.974 185.090  0.00  0.00    -0.235 NA
ATOM     14  C   LIG    1       20.634  47.007 184.504  0.00  0.00    +0.203 A 
ENDBRANCH   1   2
BRANCH   1  17
ATOM     15  N   LIG    1       22.982  44.099 183.887  0.00  0.00    -0.284 N 
ATOM     16  H   LIG    1       22.318  43.582 183.285  0.00  0.00    +0.155 HD
ATOM     17  C   LIG    1       22.966  45.462 183.713  0.00  0.00    +0.237 C 
ATOM     18  O   LIG    1       23.712  46.197 184.325  0.00  0.00    -0.274 OA
BRANCH  15  20
ATOM     19  C   LIG    1       25.002  42.847 184.350  0.00  0.00    -0.026 A 
ATOM     20  C   LIG    1       23.745  43.305 184.784  0.00  0.00    +0.037 A 
ATOM     21  C   LIG    1       23.282  43.004 186.069  0.00  0.00    +0.023 A 
ATOM     22  C   LIG    1       24.058  42.223 186.917  0.00  0.00    +0.002 A 
ATOM     23  C   LIG    1       25.296  41.751 186.490  0.00  0.00    +0.000 A 
ATOM     24  C   LIG    1       25.762  42.063 185.216  0.00  0.00    +0.005 A 
BRANCH  19  26
ATOM     25  C   LIG    1       26.660  44.215 183.168  0.00  0.00    +0.009 C 
ATOM     26  C   LIG    1       25.563  43.160 182.968  0.00  0.00    +0.033 C 
ENDBRANCH  19  26
ENDBRANCH  15  20
ENDBRANCH   1  17
TORSDOF 4
ENDMDL
MODEL 5
REMARK VINA RESULT:      -7.4     12.803     13.462
REMARK  Name = ZINC000006087320
REMARK                            x       y       z     vdW  Elec       q    Type
REMARK                         _______ _______ _______ _____ _____    ______ ____
ROOT
ATOM      1  C   LIG    1       27.964  31.802 203.977  0.00  0.00    +0.222 C 
ENDROOT
BRANCH   1   2
ATOM      2  N   LIG    1       27.113  32.587 203.050  0.00  0.00    -0.290 N 
ATOM      3  C   LIG    1       27.656  33.176 201.922  0.00  0.00    +0.262 A 
ATOM      4  O   LIG    1       28.868  33.033 201.734  0.00  0.00    -0.267 OA
ATOM      5  C   LIG    1       26.777  33.930 201.054  0.00  0.00    +0.068 A 
ATOM      6  C   LIG    1       27.239  34.536 199.876  0.00  0.00    +0.035 A 
ATOM      7  C   LIG    1       26.359  35.254 199.074  0.00  0.00    +0.043 A 
ATOM      8 CL   LIG    1       26.933  36.001 197.623  0.00  0.00    -0.083 Cl
ATOM      9  C   LIG    1       25.015  35.379 199.434  0.00  0.00    +0.042 A 
ATOM     10  C   LIG    1       24.554  34.781 200.600  0.00  0.00    +0.068 A 
ATOM     11 CL   LIG    1       22.876  34.957 201.015  0.00  0.00    -0.081 Cl
ATOM     12  C   LIG    1       25.432  34.048 201.428  0.00  0.00    +0.096 A 
ATOM     13  N   LIG    1       24.989  33.439 202.618  0.00  0.00    -0.235 NA
ATOM     14  C   LIG    1       25.778  32.769 203.368  0.00  0.00    +0.203 A 
ENDBRANCH   1   2
BRANCH   1  17
ATOM     15  N   LIG    1       28.120  29.426 204.610  0.00  0.00    -0.284 N 
ATOM     16  H   LIG    1       28.456  29.851 205.493  0.00  0.00    +0.155 HD
ATOM     17  C   LIG    1       27.782  30.332 203.635  0.00  0.00    +0.237 C 
ATOM     18  O   LIG    1       27.341  29.985 202.560  0.00  0.00    -0.274 OA
BRANCH  15  20
ATOM     19  C   LIG    1       26.926  27.351 204.969  0.00  0.00    -0.026 A 
ATOM     20  C   LIG    1       28.108  28.007 204.578  0.00  0.00    +0.037 A 
ATOM     21  C   LIG    1       29.220  27.275 204.149  0.00  0.00    +0.023 A 
ATOM     22  C   LIG    1       29.167  25.887 204.132  0.00  0.00    +0.002 A 
ATOM     23  C   LIG    1       28.009  25.228 204.533  0.00  0.00    +0.000 A 
ATOM     24  C   LIG    1       26.898  25.958 204.947  0.00  0.00    +0.005 A 
BRANCH  19  26
ATOM     25  C   LIG    1       24.480  27.208 205.077  0.00  0.00    +0.009 C 
ATOM     26  C   LIG    1       25.680  28.098 205.428  0.00  0.00    +0.033 C 
ENDBRANCH  19  26
ENDBRANCH  15  20
ENDBRANCH   1  17
TORSDOF 4
ENDMDL
MODEL 6
REMARK VINA RESULT:      -7.4     13.137     13.889
REMARK  Name = ZINC000006087320
REMARK                            x       y       z     vdW  Elec       q    Type
REMARK                         _______ _______ _______ _____ _____    ______ ____
ROOT
ATOM      1  C   LIG    1       27.556  31.252 204.612  0.00  0.00    +0.222 C 
ENDROOT
BRANCH   1   2
ATOM      2  N   LIG    1       27.634  32.114 203.409  0.00  0.00    -0.290 N 
ATOM      3  C   LIG    1       26.566  32.198 202.532  0.00  0.00    +0.262 A 
ATOM      4  O   LIG    1       25.567  31.519 202.786  0.00  0.00    -0.267 OA
ATOM      5  C   LIG    1       26.699  33.056 201.374  0.00  0.00    +0.068 A 
ATOM      6  C   LIG    1       25.657  33.221 200.450  0.00  0.00    +0.035 A 
ATOM      7  C   LIG    1       25.830  34.052 199.349  0.00  0.00    +0.043 A 
ATOM      8 CL   LIG    1       24.543  34.252 198.210  0.00  0.00    -0.083 Cl
ATOM      9  C   LIG    1       27.038  34.726 199.155  0.00  0.00    +0.042 A 
ATOM     10  C   LIG    1       28.073  34.565 200.067  0.00  0.00    +0.068 A 
ATOM     11 CL   LIG    1       29.561  35.419 199.793  0.00  0.00    -0.081 Cl
ATOM     12  C   LIG    1       27.917  33.724 201.191  0.00  0.00    +0.096 A 
ATOM     13  N   LIG    1       28.954  33.540 202.125  0.00  0.00    -0.235 NA
ATOM     14  C   LIG    1       28.815  32.785 203.148  0.00  0.00    +0.203 A 
ENDBRANCH   1   2
BRANCH   1  17
ATOM     15  N   LIG    1       27.395  28.824 205.004  0.00  0.00    -0.284 N 
ATOM     16  H   LIG    1       26.895  29.157 205.847  0.00  0.00    +0.155 HD
ATOM     17  C   LIG    1       27.840  29.824 204.174  0.00  0.00    +0.237 C 
ATOM     18  O   LIG    1       28.414  29.587 203.133  0.00  0.00    -0.274 OA
BRANCH  15  20
ATOM     19  C   LIG    1       26.391  26.622 205.007  0.00  0.00    -0.026 A 
ATOM     20  C   LIG    1       27.546  27.417 204.897  0.00  0.00    +0.037 A 
ATOM     21  C   LIG    1       28.795  26.831 204.663  0.00  0.00    +0.023 A 
ATOM     22  C   LIG    1       28.900  25.449 204.563  0.00  0.00    +0.002 A 
ATOM     23  C   LIG    1       27.766  24.652 204.688  0.00  0.00    +0.000 A 
ATOM     24  C   LIG    1       26.522  25.238 204.907  0.00  0.00    +0.005 A 
BRANCH  19  26
ATOM     25  C   LIG    1       24.020  26.345 204.442  0.00  0.00    +0.009 C 
ATOM     26  C   LIG    1       25.004  27.208 205.244  0.00  0.00    +0.033 C 
ENDBRANCH  19  26
ENDBRANCH  15  20
ENDBRANCH   1  17
TORSDOF 4
ENDMDL
MODEL 7
REMARK VINA RESULT:      -7.3     25.554     27.602
REMARK  Name = ZINC000006087320
REMARK                            x       y       z     vdW  Elec       q    Type
REMARK                         _______ _______ _______ _____ _____    ______ ____
ROOT
ATOM      1  C   LIG    1       21.976  47.564 182.931  0.00  0.00    +0.222 C 
ENDROOT
BRANCH   1   2
ATOM      2  N   LIG    1       22.634  46.354 183.481  0.00  0.00    -0.290 N 
ATOM      3  C   LIG    1       23.743  45.810 182.857  0.00  0.00    +0.262 A 
ATOM      4  O   LIG    1       24.144  46.362 181.828  0.00  0.00    -0.267 OA
ATOM      5  C   LIG    1       24.343  44.629 183.438  0.00  0.00    +0.068 A 
ATOM      6  C   LIG    1       25.486  44.030 182.887  0.00  0.00    +0.035 A 
ATOM      7  C   LIG    1       26.027  42.892 183.476  0.00  0.00    +0.043 A 
ATOM      8 CL   LIG    1       27.434  42.155 182.793  0.00  0.00    -0.083 Cl
ATOM      9  C   LIG    1       25.440  42.340 184.617  0.00  0.00    +0.042 A 
ATOM     10  C   LIG    1       24.308  42.930 185.167  0.00  0.00    +0.068 A 
ATOM     11 CL   LIG    1       23.605  42.216 186.585  0.00  0.00    -0.081 Cl
ATOM     12  C   LIG    1       23.743  44.085 184.581  0.00  0.00    +0.096 A 
ATOM     13  N   LIG    1       22.593  44.696 185.116  0.00  0.00    -0.235 NA
ATOM     14  C   LIG    1       22.082  45.745 184.594  0.00  0.00    +0.203 A 
ENDBRANCH   1   2
BRANCH   1  17
ATOM     15  N   LIG    1       20.157  48.442 184.342  0.00  0.00    -0.284 N 
ATOM     16  H   LIG    1       19.593  47.869 183.690  0.00  0.00    +0.155 HD
ATOM     17  C   LIG    1       21.510  48.408 184.106  0.00  0.00    +0.237 C 
ATOM     18  O   LIG    1       22.300  49.002 184.808  0.00  0.00    -0.274 OA
BRANCH  15  20
ATOM     19  C   LIG    1       18.796  50.359 184.917  0.00  0.00    -0.026 A 
ATOM     20  C   LIG    1       19.421  49.165 185.318  0.00  0.00    +0.037 A 
ATOM     21  C   LIG    1       19.294  48.700 186.631  0.00  0.00    +0.023 A 
ATOM     22  C   LIG    1       18.565  49.438 187.556  0.00  0.00    +0.002 A 
ATOM     23  C   LIG    1       17.956  50.629 187.174  0.00  0.00    +0.000 A 
ATOM     24  C   LIG    1       18.072  51.084 185.863  0.00  0.00    +0.005 A 
BRANCH  19  26
ATOM     25  C   LIG    1       17.587  50.495 182.786  0.00  0.00    +0.009 C 
ATOM     26  C   LIG    1       18.886  50.903 183.496  0.00  0.00    +0.033 C 
ENDBRANCH  19  26
ENDBRANCH  15  20
ENDBRANCH   1  17
TORSDOF 4
ENDMDL
MODEL 8
REMARK VINA RESULT:      -7.3     24.034     25.967
REMARK  Name = ZINC000006087320
REMARK                            x       y       z     vdW  Elec       q    Type
REMARK                         _______ _______ _______ _____ _____    ______ ____
ROOT
ATOM      1  C   LIG    1       29.484  16.601 195.144  0.00  0.00    +0.222 C 
ENDROOT
BRANCH   1   2
ATOM      2  N   LIG    1       29.578  17.329 196.433  0.00  0.00    -0.290 N 
ATOM      3  C   LIG    1       29.083  18.615 196.553  0.00  0.00    +0.262 A 
ATOM      4  O   LIG    1       28.580  19.127 195.548  0.00  0.00    -0.267 OA
ATOM      5  C   LIG    1       29.202  19.276 197.835  0.00  0.00    +0.068 A 
ATOM      6  C   LIG    1       28.702  20.569 198.052  0.00  0.00    +0.035 A 
ATOM      7  C   LIG    1       28.843  21.167 199.299  0.00  0.00    +0.043 A 
ATOM      8 CL   LIG    1       28.227  22.762 199.563  0.00  0.00    -0.083 Cl
ATOM      9  C   LIG    1       29.481  20.489 200.341  0.00  0.00    +0.042 A 
ATOM     10  C   LIG    1       29.978  19.209 200.130  0.00  0.00    +0.068 A 
ATOM     11 CL   LIG    1       30.766  18.397 201.448  0.00  0.00    -0.081 Cl
ATOM     12  C   LIG    1       29.846  18.585 198.870  0.00  0.00    +0.096 A 
ATOM     13  N   LIG    1       30.348  17.291 198.630  0.00  0.00    -0.235 NA
ATOM     14  C   LIG    1       30.225  16.719 197.494  0.00  0.00    +0.203 A 
ENDBRANCH   1   2
BRANCH   1  17
ATOM     15  N   LIG    1       27.098  16.346 194.582  0.00  0.00    -0.284 N 
ATOM     16  H   LIG    1       27.264  17.280 194.165  0.00  0.00    +0.155 HD
ATOM     17  C   LIG    1       28.204  15.782 195.171  0.00  0.00    +0.237 C 
ATOM     18  O   LIG    1       28.172  14.679 195.672  0.00  0.00    -0.274 OA
BRANCH  15  20
ATOM     19  C   LIG    1       25.318  15.416 193.232  0.00  0.00    -0.026 A 
ATOM     20  C   LIG    1       25.768  15.860 194.488  0.00  0.00    +0.037 A 
ATOM     21  C   LIG    1       24.932  15.795 195.608  0.00  0.00    +0.023 A 
ATOM     22  C   LIG    1       23.636  15.312 195.474  0.00  0.00    +0.002 A 
ATOM     23  C   LIG    1       23.175  14.887 194.232  0.00  0.00    +0.000 A 
ATOM     24  C   LIG    1       24.013  14.938 193.121  0.00  0.00    +0.005 A 
BRANCH  19  26
ATOM     25  C   LIG    1       25.509  14.542 190.947  0.00  0.00    +0.009 C 
ATOM     26  C   LIG    1       26.191  15.447 191.983  0.00  0.00    +0.033 C 
ENDBRANCH  19  26
ENDBRANCH  15  20
ENDBRANCH   1  17
TORSDOF 4
ENDMDL
MODEL 9
REMARK VINA RESULT:      -7.2      2.968      4.297
REMARK  Name = ZINC000006087320
REMARK                            x       y       z     vdW  Elec       q    Type
REMARK                         _______ _______ _______ _____ _____    ______ ____
ROOT
ATOM      1  C   LIG    1       20.306  38.382 211.320  0.00  0.00    +0.222 C 
ENDROOT
BRANCH   1   2
ATOM      2  N   LIG    1       20.728  39.777 211.050  0.00  0.00    -0.290 N 
ATOM      3  C   LIG    1       21.843  40.038 210.272  0.00  0.00    +0.262 A 
ATOM      4  O   LIG    1       22.468  39.069 209.832  0.00  0.00    -0.267 OA
ATOM      5  C   LIG    1       22.207  41.419 210.043  0.00  0.00    +0.068 A 
ATOM      6  C   LIG    1       23.305  41.773 209.244  0.00  0.00    +0.035 A 
ATOM      7  C   LIG    1       23.622  43.114 209.054  0.00  0.00    +0.043 A 
ATOM      8 CL   LIG    1       24.976  43.547 208.069  0.00  0.00    -0.083 Cl
ATOM      9  C   LIG    1       22.854  44.114 209.655  0.00  0.00    +0.042 A 
ATOM     10  C   LIG    1       21.766  43.768 210.448  0.00  0.00    +0.068 A 
ATOM     11 CL   LIG    1       20.835  45.038 211.179  0.00  0.00    -0.081 Cl
ATOM     12  C   LIG    1       21.430  42.411 210.653  0.00  0.00    +0.096 A 
ATOM     13  N   LIG    1       20.337  42.036 211.458  0.00  0.00    -0.235 NA
ATOM     14  C   LIG    1       20.023  40.811 211.642  0.00  0.00    +0.203 A 
ENDBRANCH   1   2
BRANCH   1  17
ATOM     15  N   LIG    1       18.332  38.414 209.845  0.00  0.00    -0.284 N 
ATOM     16  H   LIG    1       19.072  38.515 209.127  0.00  0.00    +0.155 HD
ATOM     17  C   LIG    1       18.799  38.313 211.133  0.00  0.00    +0.237 C 
ATOM     18  O   LIG    1       18.053  38.158 212.076  0.00  0.00    -0.274 OA
BRANCH  15  20
ATOM     19  C   LIG    1       16.472  37.237 208.839  0.00  0.00    -0.026 A 
ATOM     20  C   LIG    1       16.999  38.434 209.358  0.00  0.00    +0.037 A 
ATOM     21  C   LIG    1       16.217  39.592 209.412  0.00  0.00    +0.023 A 
ATOM     22  C   LIG    1       14.915  39.569 208.926  0.00  0.00    +0.002 A 
ATOM     23  C   LIG    1       14.390  38.395 208.394  0.00  0.00    +0.000 A 
ATOM     24  C   LIG    1       15.165  37.239 208.353  0.00  0.00    +0.005 A 
BRANCH  19  26
ATOM     25  C   LIG    1       17.242  35.481 207.308  0.00  0.00    +0.009 C 
ATOM     26  C   LIG    1       17.273  35.942 208.772  0.00  0.00    +0.033 C 
ENDBRANCH  19  26
ENDBRANCH  15  20
ENDBRANCH   1  17
TORSDOF 4
ENDMDL
