REMARK VINA RESULT:      -6.0     25.747     28.261
REMARK  Name = ZINC000000623135
REMARK                            x       y       z     vdW  Elec       q    Type
REMARK                         _______ _______ _______ _____ _____    ______ ____
ROOT
ATOM      1  N   LIG    1       22.687  41.620 210.535  0.00  0.00    -0.299 N 
ATOM      2  H   LIG    1       21.755  42.037 210.440  0.00  0.00    +0.150 HD
ENDROOT
BRANCH   1   5
ATOM      3  C   LIG    1       22.979  39.054 212.121  0.00  0.00    +0.409 C 
ATOM      4  N   LIG    1       22.165  39.450 211.098  0.00  0.00    -0.212 N 
ATOM      5  C   LIG    1       22.710  40.282 210.032  0.00  0.00    +0.235 C 
ATOM      6  S   LIG    1       21.401  40.332 208.732  0.00  0.00    -0.086 S 
ATOM      7  C   LIG    1       20.286  39.536 209.793  0.00  0.00    +0.006 C 
ATOM      8  C   LIG    1       18.830  39.221 209.648  0.00  0.00    +0.044 C 
ATOM      9  C   LIG    1       18.652  38.213 210.834  0.00  0.00    +0.011 C 
ATOM     10  C   LIG    1       19.815  38.452 211.853  0.00  0.00    +0.052 C 
ATOM     11  C   LIG    1       20.789  39.137 210.947  0.00  0.00    +0.029 C 
ATOM     12  O   LIG    1       22.568  38.437 213.099  0.00  0.00    -0.226 OA
BRANCH   3  13
ATOM     13  O   LIG    1       24.287  39.369 211.977  0.00  0.00    -0.450 OA
BRANCH  13  15
ATOM     14  C   LIG    1       26.456  39.422 212.913  0.00  0.00    +0.048 C 
ATOM     15  C   LIG    1       25.048  40.003 213.030  0.00  0.00    +0.230 C 
ENDBRANCH  13  15
ENDBRANCH   3  13
ENDBRANCH   1   5
BRANCH   1  16
ATOM     16  C   LIG    1       23.689  42.454 210.133  0.00  0.00    +0.136 C 
ATOM     17  S   LIG    1       25.189  42.568 210.868  0.00  0.00    -0.018 S 
BRANCH  16  18
ATOM     18  N   LIG    1       23.368  43.211 209.019  0.00  0.00    -0.297 N 
ATOM     19  H   LIG    1       22.563  42.858 208.487  0.00  0.00    +0.154 HD
BRANCH  18  20
ATOM     20  C   LIG    1       23.853  44.499 208.708  0.00  0.00    +0.033 A 
ATOM     21  C   LIG    1       24.745  44.687 207.648  0.00  0.00    +0.027 A 
ATOM     22  C   LIG    1       25.215  45.965 207.369  0.00  0.00    +0.047 A 
ATOM     23  C   LIG    1       24.785  47.043 208.140  0.00  0.00    +0.120 A 
ATOM     24  C   LIG    1       23.884  46.859 209.192  0.00  0.00    +0.047 A 
ATOM     25  C   LIG    1       23.414  45.580 209.476  0.00  0.00    +0.027 A 
BRANCH  23  26
ATOM     26  O   LIG    1       25.290  48.288 207.816  0.00  0.00    -0.495 OA
ATOM     27  C   LIG    1       25.866  49.221 208.758  0.00  0.00    +0.277 C 
ENDBRANCH  23  26
ENDBRANCH  18  20
ENDBRANCH  16  18
ENDBRANCH   1  16
TORSDOF 7
