REMARK VINA RESULT:      -7.6     33.255     34.915
REMARK  Name = ZINC000022624335
REMARK                            x       y       z     vdW  Elec       q    Type
REMARK                         _______ _______ _______ _____ _____    ______ ____
ROOT
ATOM      1  C   LIG    1       20.849  41.690 210.698  0.00  0.00    +0.121 A 
ATOM      2  N   LIG    1       19.572  42.022 210.466  0.00  0.00    -0.238 NA
ATOM      3  C   LIG    1       18.704  41.058 210.154  0.00  0.00    +0.136 A 
ATOM      4  C   LIG    1       19.086  39.715 210.070  0.00  0.00    +0.052 A 
ATOM      5  C   LIG    1       20.409  39.354 210.323  0.00  0.00    +0.028 A 
ATOM      6  C   LIG    1       21.298  40.363 210.644  0.00  0.00    +0.045 A 
ENDROOT
BRANCH   1  11
ATOM      7  C   LIG    1       23.897  45.999 210.180  0.00  0.00    +0.221 C 
ATOM      8  N   LIG    1       23.490  44.945 210.934  0.00  0.00    -0.298 N 
ATOM      9  C   LIG    1       24.047  43.569 210.984  0.00  0.00    +0.126 C 
ATOM     10  C   LIG    1       23.036  42.639 210.268  0.00  0.00    +0.125 C 
ATOM     11  N   LIG    1       21.747  42.720 211.003  0.00  0.00    -0.312 N 
ATOM     12  C   LIG    1       21.196  44.111 210.994  0.00  0.00    +0.125 C 
ATOM     13  C   LIG    1       22.217  45.024 211.710  0.00  0.00    +0.126 C 
ATOM     14  O   LIG    1       23.221  47.027 210.193  0.00  0.00    -0.275 OA
BRANCH   7  15
ATOM     15  C   LIG    1       25.194  45.982 209.286  0.00  0.00    +0.041 C 
ATOM     16  C   LIG    1       25.351  47.328 208.525  0.00  0.00    +0.020 C 
ATOM     17  C   LIG    1       26.491  45.915 210.129  0.00  0.00    +0.020 C 
BRANCH  15  19
ATOM     18  C   LIG    1       24.109  44.994 207.124  0.00  0.00    +0.005 C 
ATOM     19  C   LIG    1       25.202  44.868 208.199  0.00  0.00    +0.012 C 
ENDBRANCH  15  19
ENDBRANCH   7  15
ENDBRANCH   1  11
BRANCH   4  20
ATOM     20  N   LIG    1       18.098  38.733 209.763  0.00  0.00    -0.280 N 
ATOM     21  H   LIG    1       17.566  38.332 210.544  0.00  0.00    +0.155 HD
ATOM     22  C   LIG    1       17.714  38.324 208.503  0.00  0.00    +0.248 C 
ATOM     23  O   LIG    1       18.151  38.926 207.531  0.00  0.00    -0.270 OA
BRANCH  22  24
ATOM     24  C   LIG    1       16.764  37.214 208.394  0.00  0.00    +0.037 A 
ATOM     25  C   LIG    1       15.521  37.241 209.059  0.00  0.00    +0.016 A 
ATOM     26  C   LIG    1       14.629  36.182 208.930  0.00  0.00    +0.039 A 
ATOM     27  C   LIG    1       14.986  35.096 208.143  0.00  0.00    +0.123 A 
ATOM     28  F   LIG    1       14.115  34.064 208.016  0.00  0.00    -0.205 F 
ATOM     29  C   LIG    1       16.207  35.028 207.485  0.00  0.00    +0.039 A 
ATOM     30  C   LIG    1       17.096  36.089 207.616  0.00  0.00    +0.016 A 
ENDBRANCH  22  24
ENDBRANCH   4  20
TORSDOF 5
