REMARK VINA RESULT:     -10.2      0.000      0.000
REMARK  Name = ZINC000049410302
REMARK                            x       y       z     vdW  Elec       q    Type
REMARK                         _______ _______ _______ _____ _____    ______ ____
ROOT
ATOM      1  C   LIG    1       27.788  16.708 191.028  0.00  0.00    +0.314 A 
ATOM      2  O   LIG    1       26.806  15.832 190.897  0.00  0.00    -0.328 OA
ATOM      3  N   LIG    1       26.429  15.821 189.640  0.00  0.00    -0.054 NA
ATOM      4  C   LIG    1       27.184  16.685 189.041  0.00  0.00    +0.224 A 
ATOM      5  N   LIG    1       28.058  17.266 189.895  0.00  0.00    -0.182 NA
ENDROOT
BRANCH   4   6
ATOM      6  C   LIG    1       27.094  16.991 187.609  0.00  0.00    +0.153 A 
ATOM      7  N   LIG    1       26.095  17.714 187.028  0.00  0.00    -0.126 NA
ATOM      8  N   LIG    1       26.344  17.782 185.746  0.00  0.00    -0.060 NA
ATOM      9  N   LIG    1       27.490  17.113 185.500  0.00  0.00    -0.219 N 
ATOM     10  C   LIG    1       27.966  16.615 186.645  0.00  0.00    +0.148 A 
BRANCH   9  11
ATOM     11  C   LIG    1       28.075  16.973 184.188  0.00  0.00    +0.068 A 
ATOM     12  C   LIG    1       29.455  17.114 184.030  0.00  0.00    +0.047 A 
ATOM     13  C   LIG    1       30.001  16.968 182.755  0.00  0.00    +0.043 A 
ATOM     14 CL   LIG    1       31.710  17.134 182.529  0.00  0.00    -0.083 Cl
ATOM     15  C   LIG    1       29.178  16.690 181.660  0.00  0.00    +0.020 A 
ATOM     16  C   LIG    1       27.802  16.557 181.834  0.00  0.00    +0.003 A 
ATOM     17  C   LIG    1       27.240  16.698 183.100  0.00  0.00    +0.028 A 
ENDBRANCH   9  11
ENDBRANCH   4   6
BRANCH   1  20
ATOM     18  N   LIG    1       28.171  15.978 193.305  0.00  0.00    -0.278 N 
ATOM     19  H   LIG    1       27.628  15.168 192.974  0.00  0.00    +0.155 HD
ATOM     20  C   LIG    1       28.409  16.935 192.332  0.00  0.00    +0.306 C 
ATOM     21  O   LIG    1       29.125  17.899 192.591  0.00  0.00    -0.265 OA
BRANCH  18  26
ATOM     22  C   LIG    1       29.917  15.988 198.745  0.00  0.00    +0.044 C 
ATOM     23  C   LIG    1       29.465  15.969 197.301  0.00  0.00    -0.050 A 
ATOM     24  C   LIG    1       28.271  16.587 196.930  0.00  0.00    +0.005 A 
ATOM     25  C   LIG    1       27.855  16.576 195.603  0.00  0.00    +0.023 A 
ATOM     26  C   LIG    1       28.639  15.942 194.639  0.00  0.00    +0.034 A 
ATOM     27  C   LIG    1       29.844  15.331 194.998  0.00  0.00    +0.023 A 
ATOM     28  C   LIG    1       30.249  15.346 196.328  0.00  0.00    +0.005 A 
ENDBRANCH  18  26
ENDBRANCH   1  20
TORSDOF 4
