REMARK VINA RESULT:      -9.2     18.604     19.628
REMARK  Name = ZINC000049410302
REMARK                            x       y       z     vdW  Elec       q    Type
REMARK                         _______ _______ _______ _____ _____    ______ ____
ROOT
ATOM      1  C   LIG    1       27.817  27.120 204.874  0.00  0.00    +0.314 A 
ATOM      2  O   LIG    1       26.836  27.547 205.651  0.00  0.00    -0.328 OA
ATOM      3  N   LIG    1       26.676  28.832 205.442  0.00  0.00    -0.054 NA
ATOM      4  C   LIG    1       27.556  29.155 204.550  0.00  0.00    +0.224 A 
ATOM      5  N   LIG    1       28.298  28.089 204.169  0.00  0.00    -0.182 NA
ENDROOT
BRANCH   4   6
ATOM      6  C   LIG    1       27.724  30.513 204.024  0.00  0.00    +0.153 A 
ATOM      7  N   LIG    1       28.324  31.540 204.691  0.00  0.00    -0.126 NA
ATOM      8  N   LIG    1       28.290  32.593 203.918  0.00  0.00    -0.060 NA
ATOM      9  N   LIG    1       27.676  32.255 202.765  0.00  0.00    -0.219 N 
ATOM     10  C   LIG    1       27.317  30.969 202.815  0.00  0.00    +0.148 A 
BRANCH   9  11
ATOM     11  C   LIG    1       27.455  33.171 201.672  0.00  0.00    +0.068 A 
ATOM     12  C   LIG    1       26.150  33.524 201.321  0.00  0.00    +0.047 A 
ATOM     13  C   LIG    1       25.958  34.416 200.267  0.00  0.00    +0.043 A 
ATOM     14 CL   LIG    1       24.351  34.875 199.812  0.00  0.00    -0.083 Cl
ATOM     15  C   LIG    1       27.054  34.940 199.575  0.00  0.00    +0.020 A 
ATOM     16  C   LIG    1       28.350  34.574 199.934  0.00  0.00    +0.003 A 
ATOM     17  C   LIG    1       28.560  33.685 200.985  0.00  0.00    +0.028 A 
ENDBRANCH   9  11
ENDBRANCH   4   6
BRANCH   1  20
ATOM     18  N   LIG    1       28.591  25.198 206.128  0.00  0.00    -0.278 N 
ATOM     19  H   LIG    1       28.475  25.855 206.912  0.00  0.00    +0.155 HD
ATOM     20  C   LIG    1       28.222  25.715 204.898  0.00  0.00    +0.306 C 
ATOM     21  O   LIG    1       28.232  24.989 203.906  0.00  0.00    -0.265 OA
BRANCH  18  26
ATOM     22  C   LIG    1       30.186  19.901 207.560  0.00  0.00    +0.044 C 
ATOM     23  C   LIG    1       29.773  21.302 207.164  0.00  0.00    -0.050 A 
ATOM     24  C   LIG    1       28.609  21.867 207.686  0.00  0.00    +0.005 A 
ATOM     25  C   LIG    1       28.230  23.157 207.328  0.00  0.00    +0.023 A 
ATOM     26  C   LIG    1       29.021  23.887 206.441  0.00  0.00    +0.034 A 
ATOM     27  C   LIG    1       30.195  23.336 205.922  0.00  0.00    +0.023 A 
ATOM     28  C   LIG    1       30.564  22.045 206.286  0.00  0.00    +0.005 A 
ENDBRANCH  18  26
ENDBRANCH   1  20
TORSDOF 4
