REMARK VINA RESULT:      -7.4     25.990     27.598
REMARK  Name = ZINC000009107243
REMARK                            x       y       z     vdW  Elec       q    Type
REMARK                         _______ _______ _______ _____ _____    ______ ____
ROOT
ATOM      1  N   LIG    1       24.116  42.285 187.349  0.00  0.00    -0.285 N 
ATOM      2  H   LIG    1       23.256  41.831 187.686  0.00  0.00    +0.155 HD
ATOM      3  C   LIG    1       25.084  42.462 188.304  0.00  0.00    +0.222 C 
ATOM      4  O   LIG    1       26.201  42.825 187.999  0.00  0.00    -0.275 OA
ENDROOT
BRANCH   1   9
ATOM      5  N   LIG    1       24.444  43.354 181.840  0.00  0.00    -0.271 N 
ATOM      6  C   LIG    1       24.343  43.083 183.242  0.00  0.00    +0.040 A 
ATOM      7  C   LIG    1       23.310  43.625 184.017  0.00  0.00    +0.025 A 
ATOM      8  C   LIG    1       23.248  43.343 185.376  0.00  0.00    +0.025 A 
ATOM      9  C   LIG    1       24.216  42.521 185.956  0.00  0.00    +0.034 A 
ATOM     10  C   LIG    1       25.249  41.980 185.187  0.00  0.00    +0.028 A 
ATOM     11  C   LIG    1       25.314  42.252 183.823  0.00  0.00    -0.024 A 
ATOM     12  C   LIG    1       26.429  41.666 182.978  0.00  0.00    +0.046 C 
ATOM     13  C   LIG    1       25.769  41.250 181.652  0.00  0.00    +0.101 C 
ATOM     14  C   LIG    1       25.197  42.510 181.040  0.00  0.00    +0.220 C 
ATOM     15  O   LIG    1       25.392  42.789 179.870  0.00  0.00    -0.275 OA
BRANCH   5  16
ATOM     16  C   LIG    1       23.838  44.559 181.238  0.00  0.00    +0.113 C 
BRANCH  16  18
ATOM     17  C   LIG    1       24.103  46.803 182.250  0.00  0.00    +0.005 C 
ATOM     18  C   LIG    1       24.843  45.705 181.473  0.00  0.00    +0.016 C 
ENDBRANCH  16  18
ENDBRANCH   5  16
ENDBRANCH   1   9
BRANCH   3  19
ATOM     19  C   LIG    1       24.705  42.181 189.747  0.00  0.00    +0.131 C 
BRANCH  19  20
ATOM     20  C   LIG    1       23.735  43.264 190.200  0.00  0.00    -0.035 A 
ATOM     21  C   LIG    1       23.139  44.115 189.268  0.00  0.00    +0.053 A 
ATOM     22  C   LIG    1       22.226  45.086 189.687  0.00  0.00    +0.162 A 
ATOM     23  C   LIG    1       21.909  45.203 191.052  0.00  0.00    +0.161 A 
ATOM     24  C   LIG    1       22.510  44.357 191.978  0.00  0.00    +0.049 A 
ATOM     25  C   LIG    1       23.419  43.391 191.555  0.00  0.00    +0.008 A 
BRANCH  22  26
ATOM     26  O   LIG    1       21.634  45.923 188.747  0.00  0.00    -0.491 OA
ATOM     27  C   LIG    1       22.078  46.140 187.388  0.00  0.00    +0.277 C 
ENDBRANCH  22  26
BRANCH  23  28
ATOM     28  O   LIG    1       21.015  46.123 191.587  0.00  0.00    -0.491 OA
ATOM     29  C   LIG    1       19.591  45.970 191.785  0.00  0.00    +0.277 C 
ENDBRANCH  23  28
ENDBRANCH  19  20
ENDBRANCH   3  19
TORSDOF 7
