REMARK VINA RESULT:      -7.8     28.524     31.896
REMARK  Name = ZINC000049420917
REMARK                            x       y       z     vdW  Elec       q    Type
REMARK                         _______ _______ _______ _____ _____    ______ ____
ROOT
ATOM      1  N   LIG    1       23.951  44.162 183.281  0.00  0.00    -0.205 N 
ATOM      2  C   LIG    1       24.246  43.324 184.384  0.00  0.00    +0.160 A 
ATOM      3  N   LIG    1       23.374  43.309 185.403  0.00  0.00    -0.238 NA
ATOM      4  C   LIG    1       23.624  42.539 186.461  0.00  0.00    +0.113 A 
ATOM      5  C   LIG    1       24.764  41.742 186.537  0.00  0.00    +0.022 A 
ATOM      6  C   LIG    1       25.673  41.743 185.485  0.00  0.00    +0.034 A 
ATOM      7  C   LIG    1       25.406  42.560 184.394  0.00  0.00    +0.149 A 
ATOM      8  S   LIG    1       26.379  42.664 182.930  0.00  0.00    +0.082 S 
ATOM      9  O   LIG    1       27.184  43.825 182.983  0.00  0.00    -0.150 OA
ATOM     10  O   LIG    1       27.049  41.432 182.729  0.00  0.00    -0.150 OA
ATOM     11  N   LIG    1       25.249  42.860 181.760  0.00  0.00    -0.150 N 
ATOM     12  C   LIG    1       24.481  43.957 181.998  0.00  0.00    +0.334 C 
ATOM     13  O   LIG    1       24.247  44.751 181.092  0.00  0.00    -0.250 OA
ENDROOT
BRANCH   1  18
ATOM     14  C   LIG    1       20.588  48.709 184.085  0.00  0.00    +0.044 C 
ATOM     15  C   LIG    1       21.480  47.506 183.863  0.00  0.00    -0.050 A 
ATOM     16  C   LIG    1       22.848  47.590 184.125  0.00  0.00    +0.005 A 
ATOM     17  C   LIG    1       23.672  46.485 183.934  0.00  0.00    +0.024 A 
ATOM     18  C   LIG    1       23.112  45.292 183.480  0.00  0.00    +0.044 A 
ATOM     19  C   LIG    1       21.747  45.190 183.219  0.00  0.00    +0.024 A 
ATOM     20  C   LIG    1       20.933  46.302 183.413  0.00  0.00    +0.005 A 
ENDBRANCH   1  18
BRANCH  11  21
ATOM     21  C   LIG    1       25.752  42.616 180.409  0.00  0.00    +0.171 C 
BRANCH  21  22
ATOM     22  C   LIG    1       24.639  41.825 179.751  0.00  0.00    -0.028 A 
ATOM     23  C   LIG    1       23.973  40.827 180.470  0.00  0.00    +0.008 A 
ATOM     24  C   LIG    1       22.946  40.100 179.873  0.00  0.00    +0.038 A 
ATOM     25  C   LIG    1       22.598  40.390 178.561  0.00  0.00    +0.123 A 
ATOM     26  F   LIG    1       21.601  39.684 177.977  0.00  0.00    -0.205 F 
ATOM     27  C   LIG    1       23.239  41.380 177.828  0.00  0.00    +0.038 A 
ATOM     28  C   LIG    1       24.265  42.101 178.431  0.00  0.00    +0.008 A 
ENDBRANCH  21  22
ENDBRANCH  11  21
TORSDOF 3
