REMARK VINA RESULT:      -7.7     22.474     24.266
REMARK  Name = ZINC000000593415
REMARK                            x       y       z     vdW  Elec       q    Type
REMARK                         _______ _______ _______ _____ _____    ______ ____
ROOT
ATOM      1  C   LIG    1       22.814  42.543 209.566  0.00  0.00    -0.043 A 
ATOM      2  C   LIG    1       22.995  41.244 209.086  0.00  0.00    +0.006 A 
ATOM      3  C   LIG    1       21.989  40.292 209.208  0.00  0.00    +0.023 A 
ATOM      4  C   LIG    1       20.787  40.637 209.822  0.00  0.00    +0.034 A 
ATOM      5  C   LIG    1       20.582  41.932 210.297  0.00  0.00    +0.023 A 
ATOM      6  C   LIG    1       21.594  42.876 210.171  0.00  0.00    +0.006 A 
ENDROOT
BRANCH   4   7
ATOM      7  N   LIG    1       19.788  39.640 209.918  0.00  0.00    -0.282 N 
ATOM      8  H   LIG    1       19.763  39.095 210.786  0.00  0.00    +0.155 HD
ATOM      9  C   LIG    1       18.770  39.397 209.015  0.00  0.00    +0.248 C 
ATOM     10  O   LIG    1       18.619  40.161 208.073  0.00  0.00    -0.270 OA
BRANCH   9  11
ATOM     11  C   LIG    1       17.887  38.252 209.253  0.00  0.00    +0.042 A 
ATOM     12  C   LIG    1       17.163  37.643 208.209  0.00  0.00    +0.051 A 
ATOM     13  C   LIG    1       16.347  36.552 208.484  0.00  0.00    +0.127 A 
ATOM     14  F   LIG    1       15.669  35.980 207.468  0.00  0.00    -0.205 F 
ATOM     15  C   LIG    1       16.204  36.031 209.762  0.00  0.00    +0.076 A 
ATOM     16  C   LIG    1       16.913  36.649 210.780  0.00  0.00    +0.127 A 
ATOM     17  F   LIG    1       16.795  36.172 212.036  0.00  0.00    -0.205 F 
ATOM     18  C   LIG    1       17.743  37.742 210.555  0.00  0.00    +0.051 A 
ENDBRANCH   9  11
ENDBRANCH   4   7
BRANCH   1  19
ATOM     19  C   LIG    1       23.978  43.536 209.453  0.00  0.00    +0.031 C 
ATOM     20  C   LIG    1       25.230  43.031 210.194  0.00  0.00    +0.014 C 
BRANCH  19  21
ATOM     21  C   LIG    1       24.250  43.828 207.959  0.00  0.00    +0.113 C 
BRANCH  21  22
ATOM     22  N   LIG    1       25.221  44.913 207.885  0.00  0.00    -0.194 NA
ATOM     23  H   LIG    1       25.830  44.726 207.086  0.00  0.00    +0.148 HD
BRANCH  22  24
ATOM     24  S   LIG    1       24.646  46.439 207.886  0.00  0.00    +0.032 S 
ATOM     25  O   LIG    1       25.454  47.214 207.013  0.00  0.00    -0.158 OA
ATOM     26  O   LIG    1       23.252  46.403 207.612  0.00  0.00    -0.158 OA
BRANCH  24  28
ATOM     27  C   LIG    1       25.485  48.450 209.733  0.00  0.00    +0.033 C 
ATOM     28  C   LIG    1       24.889  47.026 209.579  0.00  0.00    +0.142 C 
ATOM     29  C   LIG    1       23.623  47.036 210.472  0.00  0.00    +0.033 C 
ENDBRANCH  24  28
ENDBRANCH  22  24
ENDBRANCH  21  22
ENDBRANCH  19  21
ENDBRANCH   1  19
TORSDOF 7
