REMARK VINA RESULT:      -7.4     15.976     18.520
REMARK  Name = ZINC000000538650
REMARK                            x       y       z     vdW  Elec       q    Type
REMARK                         _______ _______ _______ _____ _____    ______ ____
ROOT
ATOM      1  C   LIG    1       28.455  23.852 207.737  0.00  0.00    +0.076 A 
ATOM      2  N   LIG    1       28.166  24.325 206.442  0.00  0.00    -0.213 N 
ATOM      3  N   LIG    1       27.845  25.602 206.074  0.00  0.00    -0.172 NA
ATOM      4  C   LIG    1       27.680  25.544 204.780  0.00  0.00    +0.148 A 
ATOM      5  C   LIG    1       27.871  24.260 204.274  0.00  0.00    +0.087 A 
ATOM      6  C   LIG    1       28.194  23.474 205.355  0.00  0.00    +0.167 A 
ATOM      7  N   LIG    1       28.529  22.132 205.486  0.00  0.00    -0.235 NA
ATOM      8  C   LIG    1       28.804  21.678 206.669  0.00  0.00    +0.115 A 
ATOM      9  C   LIG    1       28.770  22.514 207.820  0.00  0.00    +0.048 A 
ENDROOT
BRANCH   1  12
ATOM     10  C   LIG    1       27.374  25.573 210.913  0.00  0.00    +0.037 A 
ATOM     11  C   LIG    1       27.427  24.648 209.870  0.00  0.00    +0.033 A 
ATOM     12  C   LIG    1       28.396  24.773 208.867  0.00  0.00    +0.002 A 
ATOM     13  C   LIG    1       29.310  25.836 208.941  0.00  0.00    +0.010 A 
ATOM     14  C   LIG    1       29.256  26.752 209.988  0.00  0.00    +0.002 A 
ATOM     15  C   LIG    1       28.287  26.628 210.977  0.00  0.00    +0.023 A 
BRANCH  10  18
ATOM     16  C   LIG    1       25.534  24.844 214.198  0.00  0.00    +0.109 C 
ATOM     17  C   LIG    1       26.650  25.010 213.194  0.00  0.00    +0.216 C 
ATOM     18  N   LIG    1       26.360  25.448 211.905  0.00  0.00    -0.275 N 
ATOM     19  C   LIG    1       24.976  25.752 211.496  0.00  0.00    +0.138 C 
ATOM     20  O   LIG    1       27.795  24.759 213.509  0.00  0.00    -0.276 OA
ENDBRANCH  10  18
ENDBRANCH   1  12
BRANCH   5  21
ATOM     21  C   LIG    1       27.773  23.911 202.875  0.00  0.00    +0.205 C 
ATOM     22  O   LIG    1       28.643  24.341 202.118  0.00  0.00    -0.286 OA
BRANCH  21  23
ATOM     23  C   LIG    1       26.688  23.121 202.310  0.00  0.00    +0.060 A 
ATOM     24  S   LIG    1       26.878  22.311 200.783  0.00  0.00    -0.093 S 
ATOM     25  C   LIG    1       25.269  21.701 200.851  0.00  0.00    +0.046 A 
ATOM     26  C   LIG    1       24.621  22.105 201.986  0.00  0.00    +0.008 A 
ATOM     27  C   LIG    1       25.417  22.909 202.809  0.00  0.00    +0.019 A 
ENDBRANCH  21  23
ENDBRANCH   5  21
TORSDOF 4
