REMARK VINA RESULT:      -8.9      0.000      0.000
REMARK  Name = ZINC000000607845
REMARK                            x       y       z     vdW  Elec       q    Type
REMARK                         _______ _______ _______ _____ _____    ______ ____
ROOT
ATOM      1  C   LIG    1       28.267  17.303 183.989  0.00  0.00    -0.021 A 
ATOM      2  C   LIG    1       29.650  17.544 184.164  0.00  0.00    +0.003 A 
ATOM      3  C   LIG    1       30.422  18.043 185.228  0.00  0.00    +0.014 A 
ATOM      4  C   LIG    1       31.800  18.138 185.091  0.00  0.00    -0.045 A 
ATOM      5  C   LIG    1       32.426  17.747 183.881  0.00  0.00    +0.006 A 
ATOM      6  C   LIG    1       31.677  17.265 182.821  0.00  0.00    +0.026 A 
ATOM      7  C   LIG    1       30.290  17.172 182.989  0.00  0.00    +0.047 A 
ATOM      8  N   LIG    1       29.316  16.728 182.117  0.00  0.00    -0.360 N 
ATOM      9  H   LIG    1       29.487  16.389 181.157  0.00  0.00    +0.165 HD
ATOM     10  C   LIG    1       28.087  16.810 182.734  0.00  0.00    +0.087 A 
ENDROOT
BRANCH   1  11
ATOM     11  C   LIG    1       27.176  17.541 185.016  0.00  0.00    +0.056 C 
BRANCH  11  14
ATOM     12  C   LIG    1       28.023  17.859 187.735  0.00  0.00    +0.105 C 
ATOM     13  N   LIG    1       27.306  16.617 187.391  0.00  0.00    -0.302 NA
ATOM     14  C   LIG    1       27.129  16.297 185.945  0.00  0.00    +0.061 C 
ATOM     15  C   LIG    1       25.722  15.664 185.873  0.00  0.00    +0.020 C 
ATOM     16  C   LIG    1       25.419  15.319 187.330  0.00  0.00    +0.017 C 
ATOM     17  C   LIG    1       26.012  16.522 188.056  0.00  0.00    +0.084 C 
ENDBRANCH  11  14
ENDBRANCH   1  11
BRANCH   4  18
ATOM     18  C   LIG    1       32.641  18.637 186.247  0.00  0.00    +0.058 C 
BRANCH  18  19
ATOM     19  C   LIG    1       34.081  18.717 185.713  0.00  0.00    +0.176 C 
BRANCH  19  20
ATOM     20  S   LIG    1       35.022  20.126 186.250  0.00  0.00    -0.003 S 
ATOM     21  O   LIG    1       34.116  21.175 186.573  0.00  0.00    -0.169 OA
ATOM     22  O   LIG    1       36.011  20.404 185.264  0.00  0.00    -0.169 OA
BRANCH  20  23
ATOM     23  C   LIG    1       35.827  19.552 187.755  0.00  0.00    +0.088 A 
ATOM     24  C   LIG    1       36.041  18.188 187.971  0.00  0.00    +0.027 A 
ATOM     25  C   LIG    1       36.663  17.744 189.134  0.00  0.00    +0.002 A 
ATOM     26  C   LIG    1       37.071  18.659 190.099  0.00  0.00    +0.000 A 
ATOM     27  C   LIG    1       36.852  20.018 189.902  0.00  0.00    +0.002 A 
ATOM     28  C   LIG    1       36.230  20.461 188.738  0.00  0.00    +0.027 A 
ENDBRANCH  20  23
ENDBRANCH  19  20
ENDBRANCH  18  19
ENDBRANCH   4  18
TORSDOF 6
