REMARK VINA RESULT:      -6.4     26.489     28.346
REMARK  Name = ZINC000070728784
REMARK                            x       y       z     vdW  Elec       q    Type
REMARK                         _______ _______ _______ _____ _____    ______ ____
ROOT
ATOM      1  C   LIG    1       17.299  37.442 208.814  0.00  0.00    +0.251 C 
ATOM      2  N   LIG    1       18.153  37.382 209.893  0.00  0.00    -0.261 N 
ATOM      3  H   LIG    1       18.441  36.439 210.176  0.00  0.00    +0.157 HD
ATOM      4  O   LIG    1       17.077  38.522 208.284  0.00  0.00    -0.270 OA
ENDROOT
BRANCH   1   6
ATOM      5  C   LIG    1       15.426  35.738 208.839  0.00  0.00    +0.020 A 
ATOM      6  C   LIG    1       16.675  36.207 208.354  0.00  0.00    +0.050 A 
ATOM      7  C   LIG    1       17.333  35.455 207.368  0.00  0.00    +0.014 A 
ATOM      8  C   LIG    1       16.760  34.310 206.832  0.00  0.00    +0.001 A 
ATOM      9  C   LIG    1       15.509  33.889 207.276  0.00  0.00    +0.001 A 
ATOM     10  C   LIG    1       14.847  34.596 208.269  0.00  0.00    +0.015 A 
BRANCH   5  11
ATOM     11  S   LIG    1       14.549  36.494 210.148  0.00  0.00    -0.122 S 
BRANCH  11  13
ATOM     12  C   LIG    1       16.207  35.060 211.705  0.00  0.00    +0.019 C 
ATOM     13  C   LIG    1       14.709  35.290 211.513  0.00  0.00    +0.045 C 
ATOM     14  C   LIG    1       14.077  35.947 212.740  0.00  0.00    +0.019 C 
ENDBRANCH  11  13
ENDBRANCH   5  11
ENDBRANCH   1   6
BRANCH   2  15
ATOM     15  C   LIG    1       18.727  38.444 210.602  0.00  0.00    +0.165 A 
ATOM     16  S   LIG    1       18.062  38.795 212.153  0.00  0.00    -0.060 S 
ATOM     17  C   LIG    1       19.194  40.076 212.268  0.00  0.00    +0.073 A 
ATOM     18  C   LIG    1       19.971  40.148 211.153  0.00  0.00    +0.064 A 
ATOM     19  N   LIG    1       19.699  39.210 210.197  0.00  0.00    -0.228 NA
BRANCH  18  20
ATOM     20  C   LIG    1       21.070  41.175 210.949  0.00  0.00    +0.140 C 
BRANCH  20  21
ATOM     21  N   LIG    1       22.231  40.483 210.310  0.00  0.00    -0.292 NA
ATOM     22  C   LIG    1       23.385  40.257 211.241  0.00  0.00    +0.113 C 
ATOM     23  C   LIG    1       24.067  41.609 211.567  0.00  0.00    +0.175 C 
ATOM     24  O   LIG    1       24.492  42.184 210.331  0.00  0.00    -0.377 OA
ATOM     25  C   LIG    1       23.400  42.508 209.472  0.00  0.00    +0.175 C 
ATOM     26  C   LIG    1       22.702  41.181 209.081  0.00  0.00    +0.113 C 
ENDBRANCH  20  21
ENDBRANCH  18  20
ENDBRANCH   2  15
TORSDOF 6
