REMARK VINA RESULT:      -6.3     28.148     30.547
REMARK  Name = ZINC000006082796
REMARK                            x       y       z     vdW  Elec       q    Type
REMARK                         _______ _______ _______ _____ _____    ______ ____
ROOT
ATOM      1  N   LIG    1       30.558  16.225 196.576  0.00  0.00    -0.306 N 
ENDROOT
BRANCH   1   2
ATOM      2  C   LIG    1       29.671  16.292 195.513  0.00  0.00    +0.133 A 
ATOM      3  C   LIG    1       28.277  16.089 195.660  0.00  0.00    +0.051 A 
ATOM      4  C   LIG    1       27.441  15.844 196.793  0.00  0.00    -0.025 A 
ATOM      5  C   LIG    1       27.918  15.770 198.234  0.00  0.00    +0.037 C 
ATOM      6  C   LIG    1       26.698  15.870 199.166  0.00  0.00    +0.005 C 
ATOM      7  C   LIG    1       25.566  14.932 198.717  0.00  0.00    +0.005 C 
ATOM      8  C   LIG    1       24.972  15.396 197.377  0.00  0.00    +0.043 C 
ATOM      9  C   LIG    1       26.133  15.667 196.444  0.00  0.00    -0.004 A 
ATOM     10  S   LIG    1       25.867  15.827 194.738  0.00  0.00    -0.073 S 
ATOM     11  C   LIG    1       27.549  16.133 194.482  0.00  0.00    +0.114 A 
ATOM     12  N   LIG    1       28.104  16.399 193.275  0.00  0.00    -0.228 NA
ATOM     13  C   LIG    1       29.397  16.608 193.251  0.00  0.00    +0.224 A 
ATOM     14  N   LIG    1       30.202  16.565 194.337  0.00  0.00    -0.220 NA
ENDBRANCH   1   2
BRANCH   1  16
ATOM     15  C   LIG    1       31.060  13.898 196.820  0.00  0.00    +0.024 C 
ATOM     16  C   LIG    1       31.654  15.245 196.398  0.00  0.00    +0.104 C 
ENDBRANCH   1  16
BRANCH   1  17
ATOM     17  C   LIG    1       31.067  17.594 196.961  0.00  0.00    +0.202 C 
BRANCH  17  18
ATOM     18  C   LIG    1       30.771  17.900 198.434  0.00  0.00    +0.231 C 
ATOM     19  N   LIG    1       29.774  18.743 198.692  0.00  0.00    -0.309 N 
ATOM     20  H   LIG    1       29.205  19.009 197.902  0.00  0.00    +0.149 HD
ATOM     21  O   LIG    1       31.408  17.392 199.352  0.00  0.00    -0.274 OA
BRANCH  19  22
ATOM     22  C   LIG    1       29.338  19.088 200.029  0.00  0.00    +0.146 C 
BRANCH  22  23
ATOM     23  C   LIG    1       28.241  20.099 199.791  0.00  0.00    +0.007 A 
ATOM     24  S   LIG    1       28.580  21.797 199.812  0.00  0.00    -0.100 S 
ATOM     25  C   LIG    1       26.923  22.163 199.484  0.00  0.00    +0.045 A 
ATOM     26  C   LIG    1       26.167  21.033 199.374  0.00  0.00    +0.008 A 
ATOM     27  C   LIG    1       26.917  19.858 199.551  0.00  0.00    +0.013 A 
ENDBRANCH  22  23
ENDBRANCH  19  22
ENDBRANCH  17  18
ENDBRANCH   1  17
TORSDOF 6
