REMARK VINA RESULT:      -7.6     17.036     19.465
REMARK  Name = ZINC000049420917
REMARK                            x       y       z     vdW  Elec       q    Type
REMARK                         _______ _______ _______ _____ _____    ______ ____
ROOT
ATOM      1  N   LIG    1       23.404  43.363 210.350  0.00  0.00    -0.205 N 
ATOM      2  C   LIG    1       23.046  43.666 211.686  0.00  0.00    +0.160 A 
ATOM      3  N   LIG    1       22.791  44.948 211.986  0.00  0.00    -0.238 NA
ATOM      4  C   LIG    1       22.461  45.270 213.236  0.00  0.00    +0.113 A 
ATOM      5  C   LIG    1       22.364  44.311 214.241  0.00  0.00    +0.022 A 
ATOM      6  C   LIG    1       22.619  42.977 213.943  0.00  0.00    +0.034 A 
ATOM      7  C   LIG    1       22.976  42.658 212.639  0.00  0.00    +0.149 A 
ATOM      8  S   LIG    1       23.273  41.033 212.028  0.00  0.00    +0.082 S 
ATOM      9  O   LIG    1       24.666  40.810 211.945  0.00  0.00    -0.150 OA
ATOM     10  O   LIG    1       22.523  40.104 212.792  0.00  0.00    -0.150 OA
ATOM     11  N   LIG    1       22.659  41.102 210.510  0.00  0.00    -0.150 N 
ATOM     12  C   LIG    1       23.253  42.088 209.785  0.00  0.00    +0.334 C 
ATOM     13  O   LIG    1       23.641  41.862 208.643  0.00  0.00    -0.250 OA
ENDROOT
BRANCH   1  18
ATOM     14  C   LIG    1       25.722  47.458 207.112  0.00  0.00    +0.044 C 
ATOM     15  C   LIG    1       25.107  46.379 207.977  0.00  0.00    -0.050 A 
ATOM     16  C   LIG    1       23.755  46.057 207.840  0.00  0.00    +0.005 A 
ATOM     17  C   LIG    1       23.186  45.059 208.623  0.00  0.00    +0.024 A 
ATOM     18  C   LIG    1       23.983  44.382 209.545  0.00  0.00    +0.044 A 
ATOM     19  C   LIG    1       25.335  44.688 209.690  0.00  0.00    +0.024 A 
ATOM     20  C   LIG    1       25.893  45.688 208.901  0.00  0.00    +0.005 A 
ENDBRANCH   1  18
BRANCH  11  21
ATOM     21  C   LIG    1       22.450  39.790 209.900  0.00  0.00    +0.171 C 
BRANCH  21  22
ATOM     22  C   LIG    1       20.975  39.790 209.551  0.00  0.00    -0.028 A 
ATOM     23  C   LIG    1       20.545  40.336 208.337  0.00  0.00    +0.008 A 
ATOM     24  C   LIG    1       19.192  40.334 208.007  0.00  0.00    +0.038 A 
ATOM     25  C   LIG    1       18.288  39.776 208.901  0.00  0.00    +0.123 A 
ATOM     26  F   LIG    1       16.971  39.773 208.584  0.00  0.00    -0.205 F 
ATOM     27  C   LIG    1       18.689  39.222 210.109  0.00  0.00    +0.038 A 
ATOM     28  C   LIG    1       20.043  39.229 210.432  0.00  0.00    +0.008 A 
ENDBRANCH  21  22
ENDBRANCH  11  21
TORSDOF 3
