REMARK VINA RESULT:      -7.0     25.983     28.340
REMARK  Name = ZINC000006087402
REMARK                            x       y       z     vdW  Elec       q    Type
REMARK                         _______ _______ _______ _____ _____    ______ ____
ROOT
ATOM      1  C   LIG    1       23.850  43.281 211.049  0.00  0.00    +0.214 C 
ENDROOT
BRANCH   1   7
ATOM      2  C   LIG    1       19.673  39.930 208.775  0.00  0.00    +0.010 C 
ATOM      3  C   LIG    1       20.239  40.572 210.064  0.00  0.00    +0.018 C 
ATOM      4  C   LIG    1       21.761  40.263 210.262  0.00  0.00    +0.115 C 
ATOM      5  C   LIG    1       22.400  41.249 211.248  0.00  0.00    +0.247 C 
ATOM      6  O   LIG    1       22.245  41.391 212.449  0.00  0.00    -0.273 OA
ATOM      7  N   LIG    1       23.253  42.040 210.546  0.00  0.00    -0.215 N 
ATOM      8  C   LIG    1       23.267  41.677 209.229  0.00  0.00    +0.310 C 
ATOM      9  O   LIG    1       23.869  42.259 208.345  0.00  0.00    -0.252 OA
ATOM     10  N   LIG    1       22.498  40.586 209.047  0.00  0.00    -0.285 N 
ATOM     11  H   LIG    1       22.157  40.375 208.104  0.00  0.00    +0.151 HD
ATOM     12  C   LIG    1       22.048  38.781 210.621  0.00  0.00    +0.035 C 
ATOM     13  C   LIG    1       21.223  38.372 211.855  0.00  0.00    +0.003 C 
ATOM     14  C   LIG    1       19.723  38.617 211.650  0.00  0.00    +0.000 C 
ATOM     15  C   LIG    1       19.452  40.088 211.301  0.00  0.00    +0.006 C 
ENDBRANCH   1   7
BRANCH   1  16
ATOM     16  C   LIG    1       25.362  43.074 211.159  0.00  0.00    +0.238 C 
ATOM     17  N   LIG    1       26.213  43.988 210.556  0.00  0.00    -0.267 N 
ATOM     18  O   LIG    1       25.853  42.124 211.758  0.00  0.00    -0.274 OA
BRANCH  17  19
ATOM     19  C   LIG    1       25.740  45.016 209.699  0.00  0.00    +0.010 C 
ATOM     20  C   LIG    1       25.320  46.304 210.386  0.00  0.00    +0.051 C 
ATOM     21  C   LIG    1       24.433  47.098 209.404  0.00  0.00    +0.006 C 
ATOM     22  C   LIG    1       25.210  47.236 208.079  0.00  0.00    +0.004 C 
ATOM     23  C   LIG    1       25.214  45.858 207.380  0.00  0.00    +0.029 C 
ATOM     24  C   LIG    1       25.718  44.821 208.366  0.00  0.00    -0.008 C 
ENDBRANCH  17  19
BRANCH  17  25
ATOM     25  C   LIG    1       27.673  43.830 210.717  0.00  0.00    +0.187 C 
BRANCH  25  26
ATOM     26  C   LIG    1       28.111  44.975 211.606  0.00  0.00    +0.122 A 
ATOM     27  O   LIG    1       27.635  45.087 212.877  0.00  0.00    -0.466 OA
ATOM     28  C   LIG    1       28.188  46.201 213.419  0.00  0.00    +0.195 A 
ATOM     29  C   LIG    1       29.000  46.789 212.513  0.00  0.00    +0.041 A 
ATOM     30  C   LIG    1       28.952  46.007 211.355  0.00  0.00    +0.046 A 
ENDBRANCH  25  26
ENDBRANCH  17  25
ENDBRANCH   1  16
TORSDOF 5
