MODEL 1
REMARK VINA RESULT:      -9.5      0.000      0.000
REMARK  Name = ZINC000009035748
REMARK                            x       y       z     vdW  Elec       q    Type
REMARK                         _______ _______ _______ _____ _____    ______ ____
ROOT
ATOM      1  C   LIG    1       25.299  35.426 198.854  0.00  0.00    +0.218 C 
ATOM      2  N   LIG    1       26.151  34.535 199.410  0.00  0.00    -0.297 N 
ATOM      3  C   LIG    1       25.582  33.545 200.361  0.00  0.00    +0.143 C 
ATOM      4  C   LIG    1       26.661  33.037 201.316  0.00  0.00    -0.025 A 
ATOM      5  C   LIG    1       26.321  32.030 202.217  0.00  0.00    +0.028 A 
ATOM      6  C   LIG    1       27.276  31.534 203.104  0.00  0.00    +0.034 A 
ATOM      7  C   LIG    1       28.572  32.049 203.112  0.00  0.00    +0.023 A 
ATOM      8  C   LIG    1       28.911  33.054 202.215  0.00  0.00    +0.006 A 
ATOM      9  C   LIG    1       27.965  33.549 201.314  0.00  0.00    -0.041 A 
ATOM     10  C   LIG    1       28.355  34.647 200.347  0.00  0.00    +0.054 C 
ATOM     11  C   LIG    1       27.578  34.379 199.050  0.00  0.00    +0.113 C 
ATOM     12  O   LIG    1       24.099  35.383 199.118  0.00  0.00    -0.275 OA
ENDROOT
BRANCH   6  13
ATOM     13  N   LIG    1       26.864  30.523 204.004  0.00  0.00    -0.283 N 
ATOM     14  H   LIG    1       25.967  30.660 204.488  0.00  0.00    +0.155 HD
ATOM     15  C   LIG    1       27.522  29.360 204.321  0.00  0.00    +0.255 C 
ATOM     16  O   LIG    1       28.588  29.083 203.808  0.00  0.00    -0.272 OA
BRANCH  15  17
ATOM     17  C   LIG    1       26.840  28.420 205.298  0.00  0.00    +0.324 C 
BRANCH  17  18
ATOM     18  O   LIG    1       27.412  27.083 205.096  0.00  0.00    -0.483 OA
BRANCH  18  19
ATOM     19  C   LIG    1       26.741  26.026 204.519  0.00  0.00    +0.121 A 
ATOM     20  C   LIG    1       27.515  24.987 204.008  0.00  0.00    +0.047 A 
ATOM     21  C   LIG    1       26.894  23.893 203.416  0.00  0.00    +0.023 A 
ATOM     22  C   LIG    1       25.500  23.842 203.337  0.00  0.00    +0.041 A 
ATOM     23 CL   LIG    1       24.727  22.481 202.599  0.00  0.00    -0.084 Cl
ATOM     24  C   LIG    1       24.726  24.887 203.850  0.00  0.00    +0.023 A 
ATOM     25  C   LIG    1       25.345  25.983 204.444  0.00  0.00    +0.047 A 
ENDBRANCH  18  19
ENDBRANCH  17  18
ENDBRANCH  15  17
ENDBRANCH   6  13
BRANCH   1  27
ATOM     26  C   LIG    1       26.949  37.341 198.420  0.00  0.00    +0.017 C 
ATOM     27  C   LIG    1       25.801  36.491 197.843  0.00  0.00    +0.069 C 
ATOM     28  C   LIG    1       26.295  35.875 196.520  0.00  0.00    +0.017 C 
ENDBRANCH   1  27
TORSDOF 5
ENDMDL
MODEL 2
REMARK VINA RESULT:      -9.4      1.796      2.166
REMARK  Name = ZINC000009035748
REMARK                            x       y       z     vdW  Elec       q    Type
REMARK                         _______ _______ _______ _____ _____    ______ ____
ROOT
ATOM      1  C   LIG    1       25.329  35.548 198.710  0.00  0.00    +0.218 C 
ATOM      2  N   LIG    1       26.173  34.652 199.272  0.00  0.00    -0.297 N 
ATOM      3  C   LIG    1       25.598  33.685 200.243  0.00  0.00    +0.143 C 
ATOM      4  C   LIG    1       26.679  33.176 201.195  0.00  0.00    -0.025 A 
ATOM      5  C   LIG    1       26.332  32.187 202.115  0.00  0.00    +0.028 A 
ATOM      6  C   LIG    1       27.288  31.691 203.001  0.00  0.00    +0.034 A 
ATOM      7  C   LIG    1       28.592  32.186 202.989  0.00  0.00    +0.023 A 
ATOM      8  C   LIG    1       28.936  33.173 202.074  0.00  0.00    +0.006 A 
ATOM      9  C   LIG    1       27.990  33.668 201.175  0.00  0.00    -0.041 A 
ATOM     10  C   LIG    1       28.387  34.745 200.188  0.00  0.00    +0.054 C 
ATOM     11  C   LIG    1       27.594  34.470 198.902  0.00  0.00    +0.113 C 
ATOM     12  O   LIG    1       24.131  35.526 198.986  0.00  0.00    -0.275 OA
ENDROOT
BRANCH   6  13
ATOM     13  N   LIG    1       26.869  30.699 203.919  0.00  0.00    -0.283 N 
ATOM     14  H   LIG    1       26.005  30.879 204.446  0.00  0.00    +0.155 HD
ATOM     15  C   LIG    1       27.483  29.504 204.205  0.00  0.00    +0.255 C 
ATOM     16  O   LIG    1       28.508  29.176 203.641  0.00  0.00    -0.272 OA
BRANCH  15  17
ATOM     17  C   LIG    1       26.803  28.597 205.213  0.00  0.00    +0.324 C 
BRANCH  17  18
ATOM     18  O   LIG    1       26.962  27.216 204.742  0.00  0.00    -0.483 OA
BRANCH  18  19
ATOM     19  C   LIG    1       27.358  26.161 205.537  0.00  0.00    +0.121 A 
ATOM     20  C   LIG    1       27.656  26.447 206.868  0.00  0.00    +0.047 A 
ATOM     21  C   LIG    1       28.059  25.423 207.718  0.00  0.00    +0.023 A 
ATOM     22  C   LIG    1       28.164  24.117 207.234  0.00  0.00    +0.041 A 
ATOM     23 CL   LIG    1       28.667  22.843 208.292  0.00  0.00    -0.084 Cl
ATOM     24  C   LIG    1       27.866  23.835 205.898  0.00  0.00    +0.023 A 
ATOM     25  C   LIG    1       27.461  24.857 205.045  0.00  0.00    +0.047 A 
ENDBRANCH  18  19
ENDBRANCH  17  18
ENDBRANCH  15  17
ENDBRANCH   6  13
BRANCH   1  27
ATOM     26  C   LIG    1       27.001  37.433 198.234  0.00  0.00    +0.017 C 
ATOM     27  C   LIG    1       25.837  36.589 197.679  0.00  0.00    +0.069 C 
ATOM     28  C   LIG    1       26.313  35.947 196.362  0.00  0.00    +0.017 C 
ENDBRANCH   1  27
TORSDOF 5
ENDMDL
MODEL 3
REMARK VINA RESULT:      -9.0     19.128     26.241
REMARK  Name = ZINC000009035748
REMARK                            x       y       z     vdW  Elec       q    Type
REMARK                         _______ _______ _______ _____ _____    ______ ____
ROOT
ATOM      1  C   LIG    1       22.751  44.475 189.976  0.00  0.00    +0.218 C 
ATOM      2  N   LIG    1       21.754  45.043 189.260  0.00  0.00    -0.297 N 
ATOM      3  C   LIG    1       22.106  45.639 187.946  0.00  0.00    +0.143 C 
ATOM      4  C   LIG    1       21.090  46.711 187.554  0.00  0.00    -0.025 A 
ATOM      5  C   LIG    1       21.217  47.310 186.302  0.00  0.00    +0.028 A 
ATOM      6  C   LIG    1       20.310  48.290 185.901  0.00  0.00    +0.034 A 
ATOM      7  C   LIG    1       19.279  48.692 186.751  0.00  0.00    +0.023 A 
ATOM      8  C   LIG    1       19.154  48.097 187.999  0.00  0.00    +0.006 A 
ATOM      9  C   LIG    1       20.050  47.106 188.405  0.00  0.00    -0.041 A 
ATOM     10  C   LIG    1       19.897  46.472 189.771  0.00  0.00    +0.054 C 
ATOM     11  C   LIG    1       20.318  45.003 189.618  0.00  0.00    +0.113 C 
ATOM     12  O   LIG    1       23.894  44.439 189.523  0.00  0.00    -0.275 OA
ENDROOT
BRANCH   6  13
ATOM     13  N   LIG    1       20.501  48.870 184.625  0.00  0.00    -0.283 N 
ATOM     14  H   LIG    1       20.054  48.404 183.824  0.00  0.00    +0.155 HD
ATOM     15  C   LIG    1       21.225  49.994 184.311  0.00  0.00    +0.255 C 
ATOM     16  O   LIG    1       21.794  50.633 185.172  0.00  0.00    -0.272 OA
BRANCH  15  17
ATOM     17  C   LIG    1       21.242  50.426 182.856  0.00  0.00    +0.324 C 
BRANCH  17  18
ATOM     18  O   LIG    1       20.306  51.547 182.718  0.00  0.00    -0.483 OA
BRANCH  18  19
ATOM     19  C   LIG    1       19.050  51.451 182.157  0.00  0.00    +0.121 A 
ATOM     20  C   LIG    1       18.792  52.246 181.042  0.00  0.00    +0.047 A 
ATOM     21  C   LIG    1       17.543  52.191 180.432  0.00  0.00    +0.023 A 
ATOM     22  C   LIG    1       16.557  51.341 180.939  0.00  0.00    +0.041 A 
ATOM     23 CL   LIG    1       15.003  51.274 180.180  0.00  0.00    -0.084 Cl
ATOM     24  C   LIG    1       16.820  50.545 182.058  0.00  0.00    +0.023 A 
ATOM     25  C   LIG    1       18.069  50.598 182.670  0.00  0.00    +0.047 A 
ENDBRANCH  18  19
ENDBRANCH  17  18
ENDBRANCH  15  17
ENDBRANCH   6  13
BRANCH   1  27
ATOM     26  C   LIG    1       23.717  43.092 191.908  0.00  0.00    +0.017 C 
ATOM     27  C   LIG    1       22.476  43.819 191.354  0.00  0.00    +0.069 C 
ATOM     28  C   LIG    1       22.015  44.832 192.420  0.00  0.00    +0.017 C 
ENDBRANCH   1  27
TORSDOF 5
ENDMDL
MODEL 4
REMARK VINA RESULT:      -8.8     17.948     24.699
REMARK  Name = ZINC000009035748
REMARK                            x       y       z     vdW  Elec       q    Type
REMARK                         _______ _______ _______ _____ _____    ______ ____
ROOT
ATOM      1  C   LIG    1       22.742  44.428 189.999  0.00  0.00    +0.218 C 
ATOM      2  N   LIG    1       21.766  44.999 189.256  0.00  0.00    -0.297 N 
ATOM      3  C   LIG    1       22.150  45.556 187.933  0.00  0.00    +0.143 C 
ATOM      4  C   LIG    1       21.162  46.638 187.501  0.00  0.00    -0.025 A 
ATOM      5  C   LIG    1       21.319  47.205 186.237  0.00  0.00    +0.028 A 
ATOM      6  C   LIG    1       20.438  48.193 185.799  0.00  0.00    +0.034 A 
ATOM      7  C   LIG    1       19.403  48.637 186.624  0.00  0.00    +0.023 A 
ATOM      8  C   LIG    1       19.249  48.074 187.884  0.00  0.00    +0.006 A 
ATOM      9  C   LIG    1       20.118  47.075 188.327  0.00  0.00    -0.041 A 
ATOM     10  C   LIG    1       19.933  46.478 189.705  0.00  0.00    +0.054 C 
ATOM     11  C   LIG    1       20.325  44.997 189.593  0.00  0.00    +0.113 C 
ATOM     12  O   LIG    1       23.890  44.358 189.564  0.00  0.00    -0.275 OA
ENDROOT
BRANCH   6  13
ATOM     13  N   LIG    1       20.659  48.738 184.512  0.00  0.00    -0.283 N 
ATOM     14  H   LIG    1       21.527  49.270 184.369  0.00  0.00    +0.155 HD
ATOM     15  C   LIG    1       19.845  48.648 183.410  0.00  0.00    +0.255 C 
ATOM     16  O   LIG    1       18.795  48.040 183.454  0.00  0.00    -0.272 OA
BRANCH  15  17
ATOM     17  C   LIG    1       20.336  49.298 182.129  0.00  0.00    +0.324 C 
BRANCH  17  18
ATOM     18  O   LIG    1       21.369  48.425 181.560  0.00  0.00    -0.483 OA
BRANCH  18  19
ATOM     19  C   LIG    1       21.146  47.139 181.114  0.00  0.00    +0.121 A 
ATOM     20  C   LIG    1       20.327  46.989 179.997  0.00  0.00    +0.047 A 
ATOM     21  C   LIG    1       20.068  45.716 179.500  0.00  0.00    +0.023 A 
ATOM     22  C   LIG    1       20.628  44.598 180.124  0.00  0.00    +0.041 A 
ATOM     23 CL   LIG    1       20.303  43.014 179.507  0.00  0.00    -0.084 Cl
ATOM     24  C   LIG    1       21.448  44.753 181.245  0.00  0.00    +0.023 A 
ATOM     25  C   LIG    1       21.710  46.026 181.744  0.00  0.00    +0.047 A 
ENDBRANCH  18  19
ENDBRANCH  17  18
ENDBRANCH  15  17
ENDBRANCH   6  13
BRANCH   1  27
ATOM     26  C   LIG    1       23.644  43.053 191.967  0.00  0.00    +0.017 C 
ATOM     27  C   LIG    1       22.434  43.811 191.388  0.00  0.00    +0.069 C 
ATOM     28  C   LIG    1       22.001  44.862 192.429  0.00  0.00    +0.017 C 
ENDBRANCH   1  27
TORSDOF 5
ENDMDL
MODEL 5
REMARK VINA RESULT:      -8.8     20.369     22.281
REMARK  Name = ZINC000009035748
REMARK                            x       y       z     vdW  Elec       q    Type
REMARK                         _______ _______ _______ _____ _____    ______ ____
ROOT
ATOM      1  C   LIG    1       39.006  19.066 190.225  0.00  0.00    +0.218 C 
ATOM      2  N   LIG    1       37.961  19.603 189.554  0.00  0.00    -0.297 N 
ATOM      3  C   LIG    1       36.832  18.701 189.210  0.00  0.00    +0.143 C 
ATOM      4  C   LIG    1       36.061  19.243 188.007  0.00  0.00    -0.025 A 
ATOM      5  C   LIG    1       34.910  18.568 187.605  0.00  0.00    +0.028 A 
ATOM      6  C   LIG    1       34.173  19.030 186.515  0.00  0.00    +0.034 A 
ATOM      7  C   LIG    1       34.587  20.159 185.807  0.00  0.00    +0.023 A 
ATOM      8  C   LIG    1       35.735  20.830 186.206  0.00  0.00    +0.006 A 
ATOM      9  C   LIG    1       36.472  20.383 187.304  0.00  0.00    -0.041 A 
ATOM     10  C   LIG    1       37.723  21.129 187.720  0.00  0.00    +0.054 C 
ATOM     11  C   LIG    1       37.791  21.042 189.251  0.00  0.00    +0.113 C 
ATOM     12  O   LIG    1       38.988  17.881 190.551  0.00  0.00    -0.275 OA
ENDROOT
BRANCH   6  13
ATOM     13  N   LIG    1       33.023  18.292 186.148  0.00  0.00    -0.283 N 
ATOM     14  H   LIG    1       33.166  17.325 185.828  0.00  0.00    +0.155 HD
ATOM     15  C   LIG    1       31.715  18.711 186.162  0.00  0.00    +0.255 C 
ATOM     16  O   LIG    1       31.420  19.831 186.527  0.00  0.00    -0.272 OA
BRANCH  15  17
ATOM     17  C   LIG    1       30.659  17.702 185.750  0.00  0.00    +0.324 C 
BRANCH  17  18
ATOM     18  O   LIG    1       29.857  18.313 184.683  0.00  0.00    -0.483 OA
BRANCH  18  19
ATOM     19  C   LIG    1       29.399  17.641 183.570  0.00  0.00    +0.121 A 
ATOM     20  C   LIG    1       28.018  17.570 183.396  0.00  0.00    +0.047 A 
ATOM     21  C   LIG    1       27.497  16.907 182.291  0.00  0.00    +0.023 A 
ATOM     22  C   LIG    1       28.358  16.317 181.363  0.00  0.00    +0.041 A 
ATOM     23 CL   LIG    1       27.709  15.490 179.988  0.00  0.00    -0.084 Cl
ATOM     24  C   LIG    1       29.743  16.389 181.541  0.00  0.00    +0.023 A 
ATOM     25  C   LIG    1       30.268  17.053 182.646  0.00  0.00    +0.047 A 
ENDBRANCH  18  19
ENDBRANCH  17  18
ENDBRANCH  15  17
ENDBRANCH   6  13
BRANCH   1  27
ATOM     26  C   LIG    1       40.510  19.852 192.148  0.00  0.00    +0.017 C 
ATOM     27  C   LIG    1       40.226  19.933 190.635  0.00  0.00    +0.069 C 
ATOM     28  C   LIG    1       41.519  19.538 189.896  0.00  0.00    +0.017 C 
ENDBRANCH   1  27
TORSDOF 5
ENDMDL
MODEL 6
REMARK VINA RESULT:      -8.2     13.043     14.540
REMARK  Name = ZINC000009035748
REMARK                            x       y       z     vdW  Elec       q    Type
REMARK                         _______ _______ _______ _____ _____    ______ ____
ROOT
ATOM      1  C   LIG    1       25.760  39.777 212.873  0.00  0.00    +0.218 C 
ATOM      2  N   LIG    1       24.582  40.331 212.504  0.00  0.00    -0.297 N 
ATOM      3  C   LIG    1       23.515  39.417 212.024  0.00  0.00    +0.143 C 
ATOM      4  C   LIG    1       22.533  40.164 211.124  0.00  0.00    -0.025 A 
ATOM      5  C   LIG    1       21.413  39.477 210.659  0.00  0.00    +0.028 A 
ATOM      6  C   LIG    1       20.488  40.121 209.837  0.00  0.00    +0.034 A 
ATOM      7  C   LIG    1       20.680  41.451 209.460  0.00  0.00    +0.023 A 
ATOM      8  C   LIG    1       21.797  42.135 209.921  0.00  0.00    +0.006 A 
ATOM      9  C   LIG    1       22.723  41.502 210.754  0.00  0.00    -0.041 A 
ATOM     10  C   LIG    1       23.935  42.266 211.243  0.00  0.00    +0.054 C 
ATOM     11  C   LIG    1       24.223  41.759 212.663  0.00  0.00    +0.113 C 
ATOM     12  O   LIG    1       25.909  38.558 212.831  0.00  0.00    -0.275 OA
ENDROOT
BRANCH   6  13
ATOM     13  N   LIG    1       19.380  39.365 209.388  0.00  0.00    -0.283 N 
ATOM     14  H   LIG    1       19.521  38.769 208.562  0.00  0.00    +0.155 HD
ATOM     15  C   LIG    1       18.115  39.327 209.921  0.00  0.00    +0.255 C 
ATOM     16  O   LIG    1       17.828  39.984 210.901  0.00  0.00    -0.272 OA
BRANCH  15  17
ATOM     17  C   LIG    1       17.112  38.397 209.263  0.00  0.00    +0.324 C 
BRANCH  17  18
ATOM     18  O   LIG    1       17.593  37.024 209.452  0.00  0.00    -0.483 OA
BRANCH  18  19
ATOM     19  C   LIG    1       16.977  35.903 208.938  0.00  0.00    +0.121 A 
ATOM     20  C   LIG    1       16.131  35.197 209.790  0.00  0.00    +0.047 A 
ATOM     21  C   LIG    1       15.480  34.059 209.326  0.00  0.00    +0.023 A 
ATOM     22  C   LIG    1       15.679  33.631 208.011  0.00  0.00    +0.041 A 
ATOM     23 CL   LIG    1       14.870  32.213 207.434  0.00  0.00    -0.084 Cl
ATOM     24  C   LIG    1       16.530  34.341 207.159  0.00  0.00    +0.023 A 
ATOM     25  C   LIG    1       17.181  35.481 207.621  0.00  0.00    +0.047 A 
ENDBRANCH  18  19
ENDBRANCH  17  18
ENDBRANCH  15  17
ENDBRANCH   6  13
BRANCH   1  27
ATOM     26  C   LIG    1       27.467  40.151 214.750  0.00  0.00    +0.017 C 
ATOM     27  C   LIG    1       26.928  40.653 213.396  0.00  0.00    +0.069 C 
ATOM     28  C   LIG    1       28.116  40.717 212.417  0.00  0.00    +0.017 C 
ENDBRANCH   1  27
TORSDOF 5
ENDMDL
MODEL 7
REMARK VINA RESULT:      -8.2     14.611     16.583
REMARK  Name = ZINC000009035748
REMARK                            x       y       z     vdW  Elec       q    Type
REMARK                         _______ _______ _______ _____ _____    ______ ____
ROOT
ATOM      1  C   LIG    1       27.387  48.446 211.328  0.00  0.00    +0.218 C 
ATOM      2  N   LIG    1       26.374  47.910 210.611  0.00  0.00    -0.297 N 
ATOM      3  C   LIG    1       26.083  46.467 210.808  0.00  0.00    +0.143 C 
ATOM      4  C   LIG    1       25.381  45.888 209.581  0.00  0.00    -0.025 A 
ATOM      5  C   LIG    1       24.950  44.564 209.633  0.00  0.00    +0.028 A 
ATOM      6  C   LIG    1       24.301  43.996 208.536  0.00  0.00    +0.034 A 
ATOM      7  C   LIG    1       24.091  44.738 207.374  0.00  0.00    +0.023 A 
ATOM      8  C   LIG    1       24.523  46.057 207.321  0.00  0.00    +0.006 A 
ATOM      9  C   LIG    1       25.162  46.639 208.418  0.00  0.00    -0.041 A 
ATOM     10  C   LIG    1       25.627  48.077 208.338  0.00  0.00    +0.054 C 
ATOM     11  C   LIG    1       25.447  48.670 209.743  0.00  0.00    +0.113 C 
ATOM     12  O   LIG    1       28.012  47.753 212.129  0.00  0.00    -0.275 OA
ENDROOT
BRANCH   6  13
ATOM     13  N   LIG    1       23.902  42.643 208.647  0.00  0.00    -0.283 N 
ATOM     14  H   LIG    1       24.502  41.936 208.203  0.00  0.00    +0.155 HD
ATOM     15  C   LIG    1       22.790  42.144 209.280  0.00  0.00    +0.255 C 
ATOM     16  O   LIG    1       22.007  42.880 209.846  0.00  0.00    -0.272 OA
BRANCH  15  17
ATOM     17  C   LIG    1       22.610  40.637 209.282  0.00  0.00    +0.324 C 
BRANCH  17  18
ATOM     18  O   LIG    1       21.453  40.331 210.132  0.00  0.00    -0.483 OA
BRANCH  18  19
ATOM     19  C   LIG    1       20.256  39.829 209.669  0.00  0.00    +0.121 A 
ATOM     20  C   LIG    1       19.584  38.930 210.495  0.00  0.00    +0.047 A 
ATOM     21  C   LIG    1       18.370  38.391 210.082  0.00  0.00    +0.023 A 
ATOM     22  C   LIG    1       17.834  38.752 208.844  0.00  0.00    +0.041 A 
ATOM     23 CL   LIG    1       16.324  38.079 208.330  0.00  0.00    -0.084 Cl
ATOM     24  C   LIG    1       18.511  39.653 208.018  0.00  0.00    +0.023 A 
ATOM     25  C   LIG    1       19.725  40.195 208.429  0.00  0.00    +0.047 A 
ENDBRANCH  18  19
ENDBRANCH  17  18
ENDBRANCH  15  17
ENDBRANCH   6  13
BRANCH   1  27
ATOM     26  C   LIG    1       26.957  50.829 212.174  0.00  0.00    +0.017 C 
ATOM     27  C   LIG    1       27.757  49.947 211.195  0.00  0.00    +0.069 C 
ATOM     28  C   LIG    1       29.254  50.220 211.438  0.00  0.00    +0.017 C 
ENDBRANCH   1  27
TORSDOF 5
ENDMDL
MODEL 8
REMARK VINA RESULT:      -8.2     14.215     17.168
REMARK  Name = ZINC000009035748
REMARK                            x       y       z     vdW  Elec       q    Type
REMARK                         _______ _______ _______ _____ _____    ______ ____
ROOT
ATOM      1  C   LIG    1       16.313  37.009 212.122  0.00  0.00    +0.218 C 
ATOM      2  N   LIG    1       17.112  37.362 211.089  0.00  0.00    -0.297 N 
ATOM      3  C   LIG    1       18.266  38.249 211.386  0.00  0.00    +0.143 C 
ATOM      4  C   LIG    1       18.690  39.016 210.135  0.00  0.00    -0.025 A 
ATOM      5  C   LIG    1       19.821  39.827 210.212  0.00  0.00    +0.028 A 
ATOM      6  C   LIG    1       20.246  40.542 209.092  0.00  0.00    +0.034 A 
ATOM      7  C   LIG    1       19.539  40.466 207.892  0.00  0.00    +0.023 A 
ATOM      8  C   LIG    1       18.411  39.660 207.816  0.00  0.00    +0.006 A 
ATOM      9  C   LIG    1       17.984  38.931 208.927  0.00  0.00    -0.041 A 
ATOM     10  C   LIG    1       16.750  38.060 208.823  0.00  0.00    +0.054 C 
ATOM     11  C   LIG    1       17.008  36.833 209.710  0.00  0.00    +0.113 C 
ATOM     12  O   LIG    1       16.569  37.396 213.260  0.00  0.00    -0.275 OA
ENDROOT
BRANCH   6  13
ATOM     13  N   LIG    1       21.392  41.358 209.240  0.00  0.00    -0.283 N 
ATOM     14  H   LIG    1       21.255  42.376 209.196  0.00  0.00    +0.155 HD
ATOM     15  C   LIG    1       22.692  40.957 209.433  0.00  0.00    +0.255 C 
ATOM     16  O   LIG    1       22.980  39.779 209.507  0.00  0.00    -0.272 OA
BRANCH  15  17
ATOM     17  C   LIG    1       23.738  42.044 209.597  0.00  0.00    +0.324 C 
BRANCH  17  18
ATOM     18  O   LIG    1       23.070  43.334 209.388  0.00  0.00    -0.483 OA
BRANCH  18  19
ATOM     19  C   LIG    1       23.695  44.470 208.920  0.00  0.00    +0.121 A 
ATOM     20  C   LIG    1       24.389  44.362 207.717  0.00  0.00    +0.047 A 
ATOM     21  C   LIG    1       25.039  45.475 207.194  0.00  0.00    +0.023 A 
ATOM     22  C   LIG    1       24.992  46.693 207.878  0.00  0.00    +0.041 A 
ATOM     23 CL   LIG    1       25.801  48.077 207.228  0.00  0.00    -0.084 Cl
ATOM     24  C   LIG    1       24.295  46.797 209.085  0.00  0.00    +0.023 A 
ATOM     25  C   LIG    1       23.643  45.685 209.610  0.00  0.00    +0.047 A 
ENDBRANCH  18  19
ENDBRANCH  17  18
ENDBRANCH  15  17
ENDBRANCH   6  13
BRANCH   1  27
ATOM     26  C   LIG    1       15.474  34.589 212.002  0.00  0.00    +0.017 C 
ATOM     27  C   LIG    1       15.091  36.079 211.908  0.00  0.00    +0.069 C 
ATOM     28  C   LIG    1       13.958  36.334 212.921  0.00  0.00    +0.017 C 
ENDBRANCH   1  27
TORSDOF 5
ENDMDL
MODEL 9
REMARK VINA RESULT:      -8.1     14.355     17.465
REMARK  Name = ZINC000009035748
REMARK                            x       y       z     vdW  Elec       q    Type
REMARK                         _______ _______ _______ _____ _____    ______ ____
ROOT
ATOM      1  C   LIG    1       17.741  37.904 209.760  0.00  0.00    +0.218 C 
ATOM      2  N   LIG    1       18.758  38.656 210.242  0.00  0.00    -0.297 N 
ATOM      3  C   LIG    1       19.394  39.624 209.312  0.00  0.00    +0.143 C 
ATOM      4  C   LIG    1       20.820  39.940 209.761  0.00  0.00    -0.025 A 
ATOM      5  C   LIG    1       21.534  40.905 209.053  0.00  0.00    +0.028 A 
ATOM      6  C   LIG    1       22.837  41.228 209.430  0.00  0.00    +0.034 A 
ATOM      7  C   LIG    1       23.445  40.581 210.507  0.00  0.00    +0.023 A 
ATOM      8  C   LIG    1       22.734  39.617 211.211  0.00  0.00    +0.006 A 
ATOM      9  C   LIG    1       21.425  39.296 210.849  0.00  0.00    -0.041 A 
ATOM     10  C   LIG    1       20.670  38.240 211.629  0.00  0.00    +0.054 C 
ATOM     11  C   LIG    1       19.201  38.687 211.654  0.00  0.00    +0.113 C 
ATOM     12  O   LIG    1       17.357  38.053 208.602  0.00  0.00    -0.275 OA
ENDROOT
BRANCH   6  13
ATOM     13  N   LIG    1       23.512  42.205 208.662  0.00  0.00    -0.283 N 
ATOM     14  H   LIG    1       24.067  41.875 207.862  0.00  0.00    +0.155 HD
ATOM     15  C   LIG    1       23.526  43.565 208.855  0.00  0.00    +0.255 C 
ATOM     16  O   LIG    1       22.904  44.076 209.764  0.00  0.00    -0.272 OA
BRANCH  15  17
ATOM     17  C   LIG    1       24.309  44.400 207.858  0.00  0.00    +0.324 C 
BRANCH  17  18
ATOM     18  O   LIG    1       25.546  44.831 208.518  0.00  0.00    -0.483 OA
BRANCH  18  19
ATOM     19  C   LIG    1       25.735  46.071 209.091  0.00  0.00    +0.121 A 
ATOM     20  C   LIG    1       25.248  47.173 208.392  0.00  0.00    +0.047 A 
ATOM     21  C   LIG    1       25.407  48.449 208.921  0.00  0.00    +0.023 A 
ATOM     22  C   LIG    1       26.055  48.618 210.147  0.00  0.00    +0.041 A 
ATOM     23 CL   LIG    1       26.255  50.207 210.804  0.00  0.00    -0.084 Cl
ATOM     24  C   LIG    1       26.544  47.510 210.845  0.00  0.00    +0.023 A 
ATOM     25  C   LIG    1       26.385  46.231 210.319  0.00  0.00    +0.047 A 
ENDBRANCH  18  19
ENDBRANCH  17  18
ENDBRANCH  15  17
ENDBRANCH   6  13
BRANCH   1  27
ATOM     26  C   LIG    1       15.561  37.299 210.968  0.00  0.00    +0.017 C 
ATOM     27  C   LIG    1       17.010  36.874 210.660  0.00  0.00    +0.069 C 
ATOM     28  C   LIG    1       16.961  35.463 210.041  0.00  0.00    +0.017 C 
ENDBRANCH   1  27
TORSDOF 5
ENDMDL
