REMARK VINA RESULT:      -6.5      2.082      3.200
REMARK  Name = ZINC000000538069
REMARK                            x       y       z     vdW  Elec       q    Type
REMARK                         _______ _______ _______ _____ _____    ______ ____
ROOT
ATOM      1  C   LIG    1       20.393  47.182 188.166  0.00  0.00    +0.248 C 
ATOM      2  N   LIG    1       20.638  47.429 186.848  0.00  0.00    -0.307 N 
ATOM      3  H   LIG    1       21.476  46.969 186.455  0.00  0.00    +0.149 HD
ATOM      4  O   LIG    1       19.555  47.902 188.705  0.00  0.00    -0.270 OA
ENDROOT
BRANCH   1   9
ATOM      5  C   LIG    1       22.507  43.992 190.114  0.00  0.00    +0.049 A 
ATOM      6  C   LIG    1       22.596  44.187 188.720  0.00  0.00    +0.063 A 
ATOM      7 CL   LIG    1       23.583  43.148 187.744  0.00  0.00    -0.082 Cl
ATOM      8  C   LIG    1       21.897  45.225 188.118  0.00  0.00    +0.038 A 
ATOM      9  C   LIG    1       21.092  46.100 188.871  0.00  0.00    +0.080 A 
ATOM     10  C   LIG    1       21.003  45.874 190.267  0.00  0.00    +0.134 A 
ATOM     11  C   LIG    1       21.702  44.833 190.882  0.00  0.00    +0.070 A 
BRANCH   5  13
ATOM     12  C   LIG    1       23.375  42.902 192.171  0.00  0.00    +0.125 C 
ATOM     13  N   LIG    1       23.224  42.939 190.713  0.00  0.00    -0.346 N 
ATOM     14  H   LIG    1       24.103  42.731 190.204  0.00  0.00    +0.146 HD
ENDBRANCH   5  13
BRANCH  10  15
ATOM     15  O   LIG    1       20.201  46.688 191.051  0.00  0.00    -0.494 OA
ATOM     16  C   LIG    1       19.921  46.582 192.466  0.00  0.00    +0.277 C 
ENDBRANCH  10  15
ENDBRANCH   1   9
BRANCH   2  17
ATOM     17  C   LIG    1       20.282  48.674 186.163  0.00  0.00    +0.091 C 
ATOM     18  C   LIG    1       21.099  48.847 184.863  0.00  0.00    +0.074 C 
ATOM     19  C   LIG    1       22.601  48.575 185.068  0.00  0.00    +0.026 C 
ATOM     20  N   LIG    1       20.564  47.809 183.972  0.00  0.00    -0.294 NA
ATOM     21  C   LIG    1       19.157  47.539 184.358  0.00  0.00    +0.087 C 
ATOM     22  C   LIG    1       18.895  48.448 185.576  0.00  0.00    +0.039 C 
BRANCH  20  23
ATOM     23  C   LIG    1       20.693  48.170 182.545  0.00  0.00    +0.120 C 
BRANCH  23  24
ATOM     24  C   LIG    1       20.272  49.627 182.454  0.00  0.00    -0.033 A 
ATOM     25  C   LIG    1       18.928  49.976 182.324  0.00  0.00    +0.005 A 
ATOM     26  C   LIG    1       18.554  51.315 182.247  0.00  0.00    +0.000 A 
ATOM     27  C   LIG    1       19.523  52.313 182.302  0.00  0.00    +0.000 A 
ATOM     28  C   LIG    1       20.864  51.971 182.432  0.00  0.00    +0.000 A 
ATOM     29  C   LIG    1       21.237  50.633 182.507  0.00  0.00    +0.005 A 
ENDBRANCH  23  24
ENDBRANCH  20  23
ENDBRANCH   2  17
TORSDOF 6
