MODEL 1
REMARK VINA RESULT:      -7.8      0.000      0.000
REMARK  Name = ZINC000009527204
REMARK                            x       y       z     vdW  Elec       q    Type
REMARK                         _______ _______ _______ _____ _____    ______ ____
ROOT
ATOM      1  O   LIG    1       27.772  43.465 180.078  0.00  0.00    -0.267 OA
ATOM      2  C   LIG    1       27.443  44.511 180.637  0.00  0.00    +0.282 C 
ATOM      3  N   LIG    1       26.167  44.543 181.189  0.00  0.00    -0.292 N 
ATOM      4  C   LIG    1       25.868  45.252 182.460  0.00  0.00    +0.127 C 
ATOM      5  C   LIG    1       25.917  44.188 183.588  0.00  0.00    +0.127 C 
ATOM      6  N   LIG    1       24.921  43.141 183.244  0.00  0.00    -0.294 N 
ATOM      7  C   LIG    1       23.602  43.253 183.671  0.00  0.00    +0.253 C 
ATOM      8  O   LIG    1       22.727  42.930 182.869  0.00  0.00    -0.269 OA
ATOM      9  C   LIG    1       25.230  42.434 181.970  0.00  0.00    +0.127 C 
ATOM     10  C   LIG    1       25.170  43.493 180.844  0.00  0.00    +0.127 C 
ENDROOT
BRANCH   7  11
ATOM     11  C   LIG    1       23.304  43.756 185.002  0.00  0.00    +0.075 A 
ATOM     12  S   LIG    1       23.771  42.867 186.419  0.00  0.00    -0.083 S 
ATOM     13  C   LIG    1       23.087  44.070 187.452  0.00  0.00    +0.024 A 
ATOM     14  C   LIG    1       23.035  44.035 188.893  0.00  0.00    -0.001 A 
ATOM     15  C   LIG    1       22.216  44.934 189.522  0.00  0.00    -0.002 A 
ATOM     16  C   LIG    1       21.302  45.902 188.785  0.00  0.00    +0.048 C 
ATOM     17  C   LIG    1       21.975  46.329 187.448  0.00  0.00    +0.041 C 
ATOM     18  S   LIG    1       22.274  44.769 191.240  0.00  0.00    -0.101 S 
ATOM     19  C   LIG    1       23.412  43.474 191.102  0.00  0.00    +0.046 A 
ATOM     20  C   LIG    1       23.717  43.199 189.801  0.00  0.00    +0.017 A 
ATOM     21  C   LIG    1       22.551  45.110 186.731  0.00  0.00    -0.032 A 
ATOM     22  C   LIG    1       22.674  44.934 185.351  0.00  0.00    +0.025 A 
ENDBRANCH   7  11
BRANCH   2  23
ATOM     23  C   LIG    1       28.359  45.650 180.725  0.00  0.00    +0.189 A 
ATOM     24  O   LIG    1       28.594  46.525 179.683  0.00  0.00    -0.458 OA
ATOM     25  C   LIG    1       29.506  47.429 180.100  0.00  0.00    +0.196 A 
ATOM     26  C   LIG    1       29.864  47.157 181.377  0.00  0.00    +0.042 A 
ATOM     27  C   LIG    1       29.143  46.031 181.774  0.00  0.00    +0.054 A 
ENDBRANCH   2  23
TORSDOF 2
ENDMDL
MODEL 2
REMARK VINA RESULT:      -7.8      2.901      4.312
REMARK  Name = ZINC000009527204
REMARK                            x       y       z     vdW  Elec       q    Type
REMARK                         _______ _______ _______ _____ _____    ______ ____
ROOT
ATOM      1  O   LIG    1       23.993  43.771 179.568  0.00  0.00    -0.267 OA
ATOM      2  C   LIG    1       22.964  43.666 180.236  0.00  0.00    +0.282 C 
ATOM      3  N   LIG    1       23.084  43.017 181.460  0.00  0.00    -0.292 N 
ATOM      4  C   LIG    1       22.313  43.434 182.659  0.00  0.00    +0.127 C 
ATOM      5  C   LIG    1       23.243  44.357 183.489  0.00  0.00    +0.127 C 
ATOM      6  N   LIG    1       24.463  43.574 183.810  0.00  0.00    -0.294 N 
ATOM      7  C   LIG    1       24.523  42.801 184.964  0.00  0.00    +0.253 C 
ATOM      8  O   LIG    1       25.056  41.697 184.869  0.00  0.00    -0.269 OA
ATOM      9  C   LIG    1       25.231  43.163 182.602  0.00  0.00    +0.127 C 
ATOM     10  C   LIG    1       24.307  42.233 181.781  0.00  0.00    +0.127 C 
ENDROOT
BRANCH   7  11
ATOM     11  C   LIG    1       23.949  43.293 186.206  0.00  0.00    +0.075 A 
ATOM     12  S   LIG    1       24.400  42.604 187.735  0.00  0.00    -0.083 S 
ATOM     13  C   LIG    1       23.343  43.678 188.580  0.00  0.00    +0.024 A 
ATOM     14  C   LIG    1       23.107  43.707 190.002  0.00  0.00    -0.001 A 
ATOM     15  C   LIG    1       22.039  44.433 190.455  0.00  0.00    -0.002 A 
ATOM     16  C   LIG    1       21.047  45.136 189.539  0.00  0.00    +0.048 C 
ATOM     17  C   LIG    1       21.787  45.631 188.262  0.00  0.00    +0.041 C 
ATOM     18  S   LIG    1       21.899  44.375 192.175  0.00  0.00    -0.101 S 
ATOM     19  C   LIG    1       23.295  43.358 192.278  0.00  0.00    +0.046 A 
ATOM     20  C   LIG    1       23.823  43.090 191.049  0.00  0.00    +0.017 A 
ATOM     21  C   LIG    1       22.700  44.534 187.719  0.00  0.00    -0.032 A 
ATOM     22  C   LIG    1       23.042  44.319 186.382  0.00  0.00    +0.025 A 
ENDBRANCH   7  11
BRANCH   2  23
ATOM     23  C   LIG    1       21.691  44.214 179.765  0.00  0.00    +0.189 A 
ATOM     24  O   LIG    1       21.373  45.557 179.806  0.00  0.00    -0.458 OA
ATOM     25  C   LIG    1       20.121  45.702 179.322  0.00  0.00    +0.196 A 
ATOM     26  C   LIG    1       19.626  44.491 178.975  0.00  0.00    +0.042 A 
ATOM     27  C   LIG    1       20.614  43.547 179.257  0.00  0.00    +0.054 A 
ENDBRANCH   2  23
TORSDOF 2
ENDMDL
MODEL 3
REMARK VINA RESULT:      -7.6     26.266     28.468
REMARK  Name = ZINC000009527204
REMARK                            x       y       z     vdW  Elec       q    Type
REMARK                         _______ _______ _______ _____ _____    ______ ____
ROOT
ATOM      1  O   LIG    1       26.179  16.862 184.886  0.00  0.00    -0.267 OA
ATOM      2  C   LIG    1       26.994  16.508 185.737  0.00  0.00    +0.282 C 
ATOM      3  N   LIG    1       28.319  16.414 185.324  0.00  0.00    -0.292 N 
ATOM      4  C   LIG    1       29.455  16.779 186.208  0.00  0.00    +0.127 C 
ATOM      5  C   LIG    1       29.846  18.238 185.855  0.00  0.00    +0.127 C 
ATOM      6  N   LIG    1       30.188  18.261 184.410  0.00  0.00    -0.294 N 
ATOM      7  C   LIG    1       31.489  18.014 183.988  0.00  0.00    +0.253 C 
ATOM      8  O   LIG    1       31.627  17.321 182.981  0.00  0.00    -0.269 OA
ATOM      9  C   LIG    1       29.041  17.897 183.531  0.00  0.00    +0.127 C 
ATOM     10  C   LIG    1       28.660  16.438 183.875  0.00  0.00    +0.127 C 
ENDROOT
BRANCH   7  11
ATOM     11  C   LIG    1       32.615  18.546 184.737  0.00  0.00    +0.075 A 
ATOM     12  S   LIG    1       33.777  17.489 185.477  0.00  0.00    -0.083 S 
ATOM     13  C   LIG    1       34.670  18.832 186.097  0.00  0.00    +0.024 A 
ATOM     14  C   LIG    1       35.851  18.770 186.922  0.00  0.00    -0.001 A 
ATOM     15  C   LIG    1       36.256  19.922 187.541  0.00  0.00    -0.002 A 
ATOM     16  C   LIG    1       35.485  21.232 187.474  0.00  0.00    +0.048 C 
ATOM     17  C   LIG    1       34.784  21.347 186.088  0.00  0.00    +0.041 C 
ATOM     18  S   LIG    1       37.686  19.684 188.479  0.00  0.00    -0.101 S 
ATOM     19  C   LIG    1       37.731  18.013 188.030  0.00  0.00    +0.046 A 
ATOM     20  C   LIG    1       36.697  17.678 187.206  0.00  0.00    +0.017 A 
ATOM     21  C   LIG    1       34.105  20.028 185.726  0.00  0.00    -0.032 A 
ATOM     22  C   LIG    1       32.948  19.868 184.959  0.00  0.00    +0.025 A 
ENDBRANCH   7  11
BRANCH   2  23
ATOM     23  C   LIG    1       26.584  16.218 187.112  0.00  0.00    +0.189 A 
ATOM     24  O   LIG    1       27.097  16.868 188.217  0.00  0.00    -0.458 OA
ATOM     25  C   LIG    1       26.521  16.335 189.316  0.00  0.00    +0.196 A 
ATOM     26  C   LIG    1       25.657  15.360 188.948  0.00  0.00    +0.042 A 
ATOM     27  C   LIG    1       25.697  15.281 187.555  0.00  0.00    +0.054 A 
ENDBRANCH   2  23
TORSDOF 2
ENDMDL
MODEL 4
REMARK VINA RESULT:      -7.6     28.166     31.149
REMARK  Name = ZINC000009527204
REMARK                            x       y       z     vdW  Elec       q    Type
REMARK                         _______ _______ _______ _____ _____    ______ ____
ROOT
ATOM      1  O   LIG    1       26.660  18.564 199.363  0.00  0.00    -0.267 OA
ATOM      2  C   LIG    1       27.716  19.190 199.453  0.00  0.00    +0.282 C 
ATOM      3  N   LIG    1       28.887  18.445 199.357  0.00  0.00    -0.292 N 
ATOM      4  C   LIG    1       30.104  18.963 198.682  0.00  0.00    +0.127 C 
ATOM      5  C   LIG    1       30.084  18.408 197.235  0.00  0.00    +0.127 C 
ATOM      6  N   LIG    1       30.045  16.926 197.335  0.00  0.00    -0.294 N 
ATOM      7  C   LIG    1       31.223  16.191 197.394  0.00  0.00    +0.253 C 
ATOM      8  O   LIG    1       31.249  15.241 198.174  0.00  0.00    -0.269 OA
ATOM      9  C   LIG    1       28.818  16.417 198.010  0.00  0.00    +0.127 C 
ATOM     10  C   LIG    1       28.846  16.961 199.458  0.00  0.00    +0.127 C 
ENDROOT
BRANCH   7  11
ATOM     11  C   LIG    1       32.363  16.569 196.575  0.00  0.00    +0.075 A 
ATOM     12  S   LIG    1       32.720  15.731 195.097  0.00  0.00    -0.083 S 
ATOM     13  C   LIG    1       34.099  16.733 194.811  0.00  0.00    +0.024 A 
ATOM     14  C   LIG    1       35.022  16.628 193.708  0.00  0.00    -0.001 A 
ATOM     15  C   LIG    1       36.199  17.321 193.795  0.00  0.00    -0.002 A 
ATOM     16  C   LIG    1       36.619  18.121 195.019  0.00  0.00    +0.048 C 
ATOM     17  C   LIG    1       35.354  18.727 195.697  0.00  0.00    +0.041 C 
ATOM     18  S   LIG    1       37.185  17.099 192.394  0.00  0.00    -0.101 S 
ATOM     19  C   LIG    1       35.995  16.060 191.691  0.00  0.00    +0.046 A 
ATOM     20  C   LIG    1       34.909  15.904 192.502  0.00  0.00    +0.017 A 
ATOM     21  C   LIG    1       34.252  17.675 195.798  0.00  0.00    -0.032 A 
ATOM     22  C   LIG    1       33.273  17.585 196.792  0.00  0.00    +0.025 A 
ENDBRANCH   7  11
BRANCH   2  23
ATOM     23  C   LIG    1       27.728  20.643 199.633  0.00  0.00    +0.189 A 
ATOM     24  O   LIG    1       28.333  21.276 200.700  0.00  0.00    -0.458 OA
ATOM     25  C   LIG    1       28.128  22.604 200.563  0.00  0.00    +0.196 A 
ATOM     26  C   LIG    1       27.408  22.839 199.442  0.00  0.00    +0.042 A 
ATOM     27  C   LIG    1       27.150  21.601 198.853  0.00  0.00    +0.054 A 
ENDBRANCH   2  23
TORSDOF 2
ENDMDL
MODEL 5
REMARK VINA RESULT:      -7.5      4.520      6.541
REMARK  Name = ZINC000009527204
REMARK                            x       y       z     vdW  Elec       q    Type
REMARK                         _______ _______ _______ _____ _____    ______ ____
ROOT
ATOM      1  O   LIG    1       24.553  43.834 179.535  0.00  0.00    -0.267 OA
ATOM      2  C   LIG    1       23.712  43.720 180.426  0.00  0.00    +0.282 C 
ATOM      3  N   LIG    1       23.870  44.547 181.534  0.00  0.00    -0.292 N 
ATOM      4  C   LIG    1       22.713  45.136 182.257  0.00  0.00    +0.127 C 
ATOM      5  C   LIG    1       22.515  46.567 181.693  0.00  0.00    +0.127 C 
ATOM      6  N   LIG    1       23.787  47.302 181.909  0.00  0.00    -0.294 N 
ATOM      7  C   LIG    1       24.004  48.006 183.089  0.00  0.00    +0.253 C 
ATOM      8  O   LIG    1       25.128  47.935 183.581  0.00  0.00    -0.269 OA
ATOM      9  C   LIG    1       24.940  46.706 181.178  0.00  0.00    +0.127 C 
ATOM     10  C   LIG    1       25.145  45.284 181.750  0.00  0.00    +0.127 C 
ENDROOT
BRANCH   7  11
ATOM     11  C   LIG    1       22.923  48.762 183.700  0.00  0.00    +0.075 A 
ATOM     12  S   LIG    1       21.816  48.006 184.804  0.00  0.00    -0.083 S 
ATOM     13  C   LIG    1       20.949  49.486 185.015  0.00  0.00    +0.024 A 
ATOM     14  C   LIG    1       19.770  49.682 185.823  0.00  0.00    -0.001 A 
ATOM     15  C   LIG    1       19.067  50.843 185.650  0.00  0.00    -0.002 A 
ATOM     16  C   LIG    1       19.412  51.891 184.601  0.00  0.00    +0.048 C 
ATOM     17  C   LIG    1       20.955  51.926 184.397  0.00  0.00    +0.041 C 
ATOM     18  S   LIG    1       17.694  50.929 186.694  0.00  0.00    -0.101 S 
ATOM     19  C   LIG    1       18.076  49.381 187.364  0.00  0.00    +0.046 A 
ATOM     20  C   LIG    1       19.199  48.845 186.804  0.00  0.00    +0.017 A 
ATOM     21  C   LIG    1       21.508  50.507 184.285  0.00  0.00    -0.032 A 
ATOM     22  C   LIG    1       22.621  50.100 183.545  0.00  0.00    +0.025 A 
ENDBRANCH   7  11
BRANCH   2  23
ATOM     23  C   LIG    1       22.601  42.774 180.311  0.00  0.00    +0.189 A 
ATOM     24  O   LIG    1       22.583  41.536 180.921  0.00  0.00    -0.458 OA
ATOM     25  C   LIG    1       21.429  40.924 180.582  0.00  0.00    +0.196 A 
ATOM     26  C   LIG    1       20.708  41.732 179.770  0.00  0.00    +0.042 A 
ATOM     27  C   LIG    1       21.448  42.901 179.594  0.00  0.00    +0.054 A 
ENDBRANCH   2  23
TORSDOF 2
ENDMDL
MODEL 6
REMARK VINA RESULT:      -7.5      3.926      4.877
REMARK  Name = ZINC000009527204
REMARK                            x       y       z     vdW  Elec       q    Type
REMARK                         _______ _______ _______ _____ _____    ______ ____
ROOT
ATOM      1  O   LIG    1       27.844  43.184 182.092  0.00  0.00    -0.267 OA
ATOM      2  C   LIG    1       27.526  44.228 181.524  0.00  0.00    +0.282 C 
ATOM      3  N   LIG    1       26.187  44.356 181.168  0.00  0.00    -0.292 N 
ATOM      4  C   LIG    1       25.469  45.655 181.231  0.00  0.00    +0.127 C 
ATOM      5  C   LIG    1       24.719  45.687 182.587  0.00  0.00    +0.127 C 
ATOM      6  N   LIG    1       23.816  44.507 182.615  0.00  0.00    -0.294 N 
ATOM      7  C   LIG    1       22.521  44.598 182.116  0.00  0.00    +0.253 C 
ATOM      8  O   LIG    1       22.107  43.640 181.465  0.00  0.00    -0.269 OA
ATOM      9  C   LIG    1       24.545  43.210 182.555  0.00  0.00    +0.127 C 
ATOM     10  C   LIG    1       25.284  43.174 181.196  0.00  0.00    +0.127 C 
ENDROOT
BRANCH   7  11
ATOM     11  C   LIG    1       21.728  45.793 182.351  0.00  0.00    +0.075 A 
ATOM     12  S   LIG    1       21.546  46.446 183.949  0.00  0.00    -0.083 S 
ATOM     13  C   LIG    1       20.547  47.727 183.360  0.00  0.00    +0.024 A 
ATOM     14  C   LIG    1       19.914  48.754 184.149  0.00  0.00    -0.001 A 
ATOM     15  C   LIG    1       18.945  49.511 183.548  0.00  0.00    -0.002 A 
ATOM     16  C   LIG    1       18.446  49.274 182.130  0.00  0.00    +0.048 C 
ATOM     17  C   LIG    1       19.620  48.747 181.253  0.00  0.00    +0.041 C 
ATOM     18  S   LIG    1       18.294  50.699 184.620  0.00  0.00    -0.101 S 
ATOM     19  C   LIG    1       19.341  50.161 185.889  0.00  0.00    +0.046 A 
ATOM     20  C   LIG    1       20.137  49.127 185.491  0.00  0.00    +0.017 A 
ATOM     21  C   LIG    1       20.390  47.658 181.997  0.00  0.00    -0.032 A 
ATOM     22  C   LIG    1       21.056  46.570 181.427  0.00  0.00    +0.025 A 
ENDBRANCH   7  11
BRANCH   2  23
ATOM     23  C   LIG    1       28.508  45.280 181.255  0.00  0.00    +0.189 A 
ATOM     24  O   LIG    1       29.190  45.404 180.061  0.00  0.00    -0.458 OA
ATOM     25  C   LIG    1       30.027  46.457 180.170  0.00  0.00    +0.196 A 
ATOM     26  C   LIG    1       29.904  47.009 181.399  0.00  0.00    +0.042 A 
ATOM     27  C   LIG    1       28.947  46.265 182.090  0.00  0.00    +0.054 A 
ENDBRANCH   2  23
TORSDOF 2
ENDMDL
MODEL 7
REMARK VINA RESULT:      -7.5     24.363     26.924
REMARK  Name = ZINC000009527204
REMARK                            x       y       z     vdW  Elec       q    Type
REMARK                         _______ _______ _______ _____ _____    ______ ____
ROOT
ATOM      1  O   LIG    1       18.834  38.224 210.100  0.00  0.00    -0.267 OA
ATOM      2  C   LIG    1       18.728  39.403 210.436  0.00  0.00    +0.282 C 
ATOM      3  N   LIG    1       19.878  40.012 210.927  0.00  0.00    -0.292 N 
ATOM      4  C   LIG    1       20.204  41.435 210.649  0.00  0.00    +0.127 C 
ATOM      5  C   LIG    1       21.173  41.445 209.439  0.00  0.00    +0.127 C 
ATOM      6  N   LIG    1       22.355  40.629 209.819  0.00  0.00    -0.294 N 
ATOM      7  C   LIG    1       23.445  41.216 210.450  0.00  0.00    +0.253 C 
ATOM      8  O   LIG    1       23.970  40.581 211.362  0.00  0.00    -0.269 OA
ATOM      9  C   LIG    1       22.019  39.203 210.091  0.00  0.00    +0.127 C 
ATOM     10  C   LIG    1       21.062  39.193 211.306  0.00  0.00    +0.127 C 
ENDROOT
BRANCH   7  11
ATOM     11  C   LIG    1       23.904  42.534 210.042  0.00  0.00    +0.075 A 
ATOM     12  S   LIG    1       24.097  43.812 211.201  0.00  0.00    -0.083 S 
ATOM     13  C   LIG    1       24.619  44.908 209.972  0.00  0.00    +0.024 A 
ATOM     14  C   LIG    1       24.960  46.298 210.149  0.00  0.00    -0.001 A 
ATOM     15  C   LIG    1       25.083  47.071 209.026  0.00  0.00    -0.002 A 
ATOM     16  C   LIG    1       24.799  46.566 207.619  0.00  0.00    +0.048 C 
ATOM     17  C   LIG    1       25.185  45.061 207.524  0.00  0.00    +0.041 C 
ATOM     18  S   LIG    1       25.502  48.702 209.407  0.00  0.00    -0.101 S 
ATOM     19  C   LIG    1       25.508  48.332 211.097  0.00  0.00    +0.046 A 
ATOM     20  C   LIG    1       25.202  47.024 211.334  0.00  0.00    +0.017 A 
ATOM     21  C   LIG    1       24.662  44.301 208.740  0.00  0.00    -0.032 A 
ATOM     22  C   LIG    1       24.261  42.963 208.779  0.00  0.00    +0.025 A 
ENDBRANCH   7  11
BRANCH   2  23
ATOM     23  C   LIG    1       17.459  40.121 210.309  0.00  0.00    +0.189 A 
ATOM     24  O   LIG    1       16.863  40.812 211.345  0.00  0.00    -0.458 OA
ATOM     25  C   LIG    1       15.702  41.325 210.886  0.00  0.00    +0.196 A 
ATOM     26  C   LIG    1       15.535  40.982 209.587  0.00  0.00    +0.042 A 
ATOM     27  C   LIG    1       16.643  40.217 209.220  0.00  0.00    +0.054 A 
ENDBRANCH   2  23
TORSDOF 2
ENDMDL
MODEL 8
REMARK VINA RESULT:      -7.2      4.277      9.005
REMARK  Name = ZINC000009527204
REMARK                            x       y       z     vdW  Elec       q    Type
REMARK                         _______ _______ _______ _____ _____    ______ ____
ROOT
ATOM      1  O   LIG    1       23.044  42.820 191.039  0.00  0.00    -0.267 OA
ATOM      2  C   LIG    1       22.764  43.724 190.252  0.00  0.00    +0.282 C 
ATOM      3  N   LIG    1       23.608  43.876 189.158  0.00  0.00    -0.292 N 
ATOM      4  C   LIG    1       23.107  44.266 187.815  0.00  0.00    +0.127 C 
ATOM      5  C   LIG    1       22.921  42.955 187.008  0.00  0.00    +0.127 C 
ATOM      6  N   LIG    1       24.240  42.273 186.974  0.00  0.00    -0.294 N 
ATOM      7  C   LIG    1       25.149  42.543 185.956  0.00  0.00    +0.253 C 
ATOM      8  O   LIG    1       26.332  42.637 186.276  0.00  0.00    -0.269 OA
ATOM      9  C   LIG    1       24.733  41.882 188.324  0.00  0.00    +0.127 C 
ATOM     10  C   LIG    1       24.930  43.192 189.124  0.00  0.00    +0.127 C 
ENDROOT
BRANCH   7  11
ATOM     11  C   LIG    1       24.685  42.723 184.591  0.00  0.00    +0.075 A 
ATOM     12  S   LIG    1       25.532  42.002 183.256  0.00  0.00    -0.083 S 
ATOM     13  C   LIG    1       24.407  42.669 182.127  0.00  0.00    +0.024 A 
ATOM     14  C   LIG    1       24.455  42.540 180.691  0.00  0.00    -0.001 A 
ATOM     15  C   LIG    1       23.645  43.359 179.952  0.00  0.00    -0.002 A 
ATOM     16  C   LIG    1       22.767  44.446 180.555  0.00  0.00    +0.048 C 
ATOM     17  C   LIG    1       22.269  43.986 181.956  0.00  0.00    +0.041 C 
ATOM     18  S   LIG    1       23.813  43.076 178.256  0.00  0.00    -0.101 S 
ATOM     19  C   LIG    1       24.989  41.843 178.554  0.00  0.00    +0.046 A 
ATOM     20  C   LIG    1       25.226  41.674 179.887  0.00  0.00    +0.017 A 
ATOM     21  C   LIG    1       23.422  43.387 182.759  0.00  0.00    -0.032 A 
ATOM     22  C   LIG    1       23.576  43.417 184.147  0.00  0.00    +0.025 A 
ENDBRANCH   7  11
BRANCH   2  23
ATOM     23  C   LIG    1       21.593  44.578 190.458  0.00  0.00    +0.189 A 
ATOM     24  O   LIG    1       20.540  44.661 189.568  0.00  0.00    -0.458 OA
ATOM     25  C   LIG    1       19.655  45.556 190.056  0.00  0.00    +0.196 A 
ATOM     26  C   LIG    1       20.111  46.051 191.230  0.00  0.00    +0.042 A 
ATOM     27  C   LIG    1       21.337  45.438 191.486  0.00  0.00    +0.054 A 
ENDBRANCH   2  23
TORSDOF 2
ENDMDL
MODEL 9
REMARK VINA RESULT:      -7.2      4.550      6.505
REMARK  Name = ZINC000009527204
REMARK                            x       y       z     vdW  Elec       q    Type
REMARK                         _______ _______ _______ _____ _____    ______ ____
ROOT
ATOM      1  O   LIG    1       25.494  42.127 179.393  0.00  0.00    -0.267 OA
ATOM      2  C   LIG    1       24.588  41.988 180.214  0.00  0.00    +0.282 C 
ATOM      3  N   LIG    1       24.577  42.880 181.282  0.00  0.00    -0.292 N 
ATOM      4  C   LIG    1       23.316  43.404 181.866  0.00  0.00    +0.127 C 
ATOM      5  C   LIG    1       23.055  44.782 181.206  0.00  0.00    +0.127 C 
ATOM      6  N   LIG    1       24.239  45.633 181.488  0.00  0.00    -0.294 N 
ATOM      7  C   LIG    1       24.291  46.411 182.639  0.00  0.00    +0.253 C 
ATOM      8  O   LIG    1       25.368  46.462 183.230  0.00  0.00    -0.269 OA
ATOM      9  C   LIG    1       25.498  45.102 180.895  0.00  0.00    +0.127 C 
ATOM     10  C   LIG    1       25.764  43.732 181.564  0.00  0.00    +0.127 C 
ENDROOT
BRANCH   7  11
ATOM     11  C   LIG    1       23.102  47.102 183.110  0.00  0.00    +0.075 A 
ATOM     12  S   LIG    1       23.060  48.835 183.224  0.00  0.00    -0.083 S 
ATOM     13  C   LIG    1       21.437  48.800 183.815  0.00  0.00    +0.024 A 
ATOM     14  C   LIG    1       20.644  49.937 184.213  0.00  0.00    -0.001 A 
ATOM     15  C   LIG    1       19.491  49.696 184.910  0.00  0.00    -0.002 A 
ATOM     16  C   LIG    1       19.049  48.310 185.357  0.00  0.00    +0.048 C 
ATOM     17  C   LIG    1       19.507  47.259 184.304  0.00  0.00    +0.041 C 
ATOM     18  S   LIG    1       18.654  51.155 185.302  0.00  0.00    -0.101 S 
ATOM     19  C   LIG    1       19.877  52.095 184.518  0.00  0.00    +0.046 A 
ATOM     20  C   LIG    1       20.864  51.312 183.992  0.00  0.00    +0.017 A 
ATOM     21  C   LIG    1       20.955  47.516 183.893  0.00  0.00    -0.032 A 
ATOM     22  C   LIG    1       21.892  46.559 183.495  0.00  0.00    +0.025 A 
ENDBRANCH   7  11
BRANCH   2  23
ATOM     23  C   LIG    1       23.571  40.946 180.059  0.00  0.00    +0.189 A 
ATOM     24  O   LIG    1       23.545  39.785 180.805  0.00  0.00    -0.458 OA
ATOM     25  C   LIG    1       22.497  39.045 180.383  0.00  0.00    +0.196 A 
ATOM     26  C   LIG    1       21.854  39.697 179.386  0.00  0.00    +0.042 A 
ATOM     27  C   LIG    1       22.532  40.897 179.176  0.00  0.00    +0.054 A 
ENDBRANCH   2  23
TORSDOF 2
ENDMDL
