REMARK VINA RESULT:      -7.8      2.901      4.312
REMARK  Name = ZINC000009527204
REMARK                            x       y       z     vdW  Elec       q    Type
REMARK                         _______ _______ _______ _____ _____    ______ ____
ROOT
ATOM      1  O   LIG    1       23.993  43.771 179.568  0.00  0.00    -0.267 OA
ATOM      2  C   LIG    1       22.964  43.666 180.236  0.00  0.00    +0.282 C 
ATOM      3  N   LIG    1       23.084  43.017 181.460  0.00  0.00    -0.292 N 
ATOM      4  C   LIG    1       22.313  43.434 182.659  0.00  0.00    +0.127 C 
ATOM      5  C   LIG    1       23.243  44.357 183.489  0.00  0.00    +0.127 C 
ATOM      6  N   LIG    1       24.463  43.574 183.810  0.00  0.00    -0.294 N 
ATOM      7  C   LIG    1       24.523  42.801 184.964  0.00  0.00    +0.253 C 
ATOM      8  O   LIG    1       25.056  41.697 184.869  0.00  0.00    -0.269 OA
ATOM      9  C   LIG    1       25.231  43.163 182.602  0.00  0.00    +0.127 C 
ATOM     10  C   LIG    1       24.307  42.233 181.781  0.00  0.00    +0.127 C 
ENDROOT
BRANCH   7  11
ATOM     11  C   LIG    1       23.949  43.293 186.206  0.00  0.00    +0.075 A 
ATOM     12  S   LIG    1       24.400  42.604 187.735  0.00  0.00    -0.083 S 
ATOM     13  C   LIG    1       23.343  43.678 188.580  0.00  0.00    +0.024 A 
ATOM     14  C   LIG    1       23.107  43.707 190.002  0.00  0.00    -0.001 A 
ATOM     15  C   LIG    1       22.039  44.433 190.455  0.00  0.00    -0.002 A 
ATOM     16  C   LIG    1       21.047  45.136 189.539  0.00  0.00    +0.048 C 
ATOM     17  C   LIG    1       21.787  45.631 188.262  0.00  0.00    +0.041 C 
ATOM     18  S   LIG    1       21.899  44.375 192.175  0.00  0.00    -0.101 S 
ATOM     19  C   LIG    1       23.295  43.358 192.278  0.00  0.00    +0.046 A 
ATOM     20  C   LIG    1       23.823  43.090 191.049  0.00  0.00    +0.017 A 
ATOM     21  C   LIG    1       22.700  44.534 187.719  0.00  0.00    -0.032 A 
ATOM     22  C   LIG    1       23.042  44.319 186.382  0.00  0.00    +0.025 A 
ENDBRANCH   7  11
BRANCH   2  23
ATOM     23  C   LIG    1       21.691  44.214 179.765  0.00  0.00    +0.189 A 
ATOM     24  O   LIG    1       21.373  45.557 179.806  0.00  0.00    -0.458 OA
ATOM     25  C   LIG    1       20.121  45.702 179.322  0.00  0.00    +0.196 A 
ATOM     26  C   LIG    1       19.626  44.491 178.975  0.00  0.00    +0.042 A 
ATOM     27  C   LIG    1       20.614  43.547 179.257  0.00  0.00    +0.054 A 
ENDBRANCH   2  23
TORSDOF 2
