REMARK VINA RESULT:      -8.6      3.981      9.754
REMARK  Name = ZINC000006083105
REMARK                            x       y       z     vdW  Elec       q    Type
REMARK                         _______ _______ _______ _____ _____    ______ ____
ROOT
ATOM      1  C   LIG    1       24.783  42.599 184.044  0.00  0.00    +0.083 C 
ENDROOT
BRANCH   1   2
ATOM      2  C   LIG    1       24.412  42.884 185.486  0.00  0.00    +0.111 A 
ATOM      3  N   LIG    1       25.039  42.105 186.437  0.00  0.00    -0.310 N 
ATOM      4  H   LIG    1       25.669  41.343 186.151  0.00  0.00    +0.170 HD
ATOM      5  C   LIG    1       24.791  42.222 187.770  0.00  0.00    +0.260 A 
ATOM      6  O   LIG    1       25.414  41.444 188.492  0.00  0.00    -0.267 OA
ATOM      7  C   LIG    1       23.837  43.218 188.162  0.00  0.00    +0.075 A 
ATOM      8  C   LIG    1       23.370  43.586 189.450  0.00  0.00    -0.023 A 
ATOM      9  C   LIG    1       23.819  42.935 190.747  0.00  0.00    +0.037 C 
ATOM     10  C   LIG    1       23.403  43.854 191.912  0.00  0.00    +0.005 C 
ATOM     11  C   LIG    1       21.934  44.297 191.787  0.00  0.00    +0.005 C 
ATOM     12  C   LIG    1       21.731  45.223 190.574  0.00  0.00    +0.043 C 
ATOM     13  C   LIG    1       22.432  44.578 189.398  0.00  0.00    -0.004 A 
ATOM     14  S   LIG    1       22.115  45.095 187.774  0.00  0.00    -0.073 S 
ATOM     15  C   LIG    1       23.250  43.951 187.160  0.00  0.00    +0.116 A 
ATOM     16  N   LIG    1       23.545  43.770 185.811  0.00  0.00    -0.227 NA
ENDBRANCH   1   2
BRANCH   1  17
ATOM     17  C   LIG    1       26.129  41.827 184.044  0.00  0.00    +0.104 C 
BRANCH  17  20
ATOM     18  N   LIG    1       26.856  43.832 182.823  0.00  0.00    -0.285 N 
ATOM     19  H   LIG    1       26.144  44.292 183.400  0.00  0.00    +0.155 HD
ATOM     20  C   LIG    1       27.060  42.500 183.056  0.00  0.00    +0.218 C 
ATOM     21  O   LIG    1       27.931  41.886 182.472  0.00  0.00    -0.275 OA
BRANCH  18  25
ATOM     22  C   LIG    1       28.867  46.319 180.123  0.00  0.00    +0.121 A 
ATOM     23  C   LIG    1       29.033  46.495 181.500  0.00  0.00    +0.047 A 
ATOM     24  C   LIG    1       28.363  45.654 182.384  0.00  0.00    +0.027 A 
ATOM     25  C   LIG    1       27.537  44.644 181.883  0.00  0.00    +0.034 A 
ATOM     26  C   LIG    1       27.367  44.474 180.505  0.00  0.00    +0.027 A 
ATOM     27  C   LIG    1       28.038  45.316 179.625  0.00  0.00    +0.047 A 
BRANCH  22  28
ATOM     28  O   LIG    1       29.508  47.120 179.202  0.00  0.00    -0.492 OA
BRANCH  28  30
ATOM     29  C   LIG    1       31.763  46.450 179.214  0.00  0.00    +0.048 C 
ATOM     30  C   LIG    1       30.837  47.656 179.359  0.00  0.00    +0.225 C 
ENDBRANCH  28  30
ENDBRANCH  22  28
ENDBRANCH  18  25
ENDBRANCH  17  20
ENDBRANCH   1  17
TORSDOF 6
