REMARK VINA RESULT:      -7.1     33.870     35.806
REMARK  Name = ZINC000022624335
REMARK                            x       y       z     vdW  Elec       q    Type
REMARK                         _______ _______ _______ _____ _____    ______ ____
ROOT
ATOM      1  C   LIG    1       23.373  43.350 209.571  0.00  0.00    +0.121 A 
ATOM      2  N   LIG    1       22.199  43.671 210.132  0.00  0.00    -0.238 NA
ATOM      3  C   LIG    1       21.241  42.745 210.195  0.00  0.00    +0.136 A 
ATOM      4  C   LIG    1       21.428  41.451 209.698  0.00  0.00    +0.052 A 
ATOM      5  C   LIG    1       22.649  41.099 209.124  0.00  0.00    +0.028 A 
ATOM      6  C   LIG    1       23.633  42.069 209.066  0.00  0.00    +0.045 A 
ENDROOT
BRANCH   1  11
ATOM      7  C   LIG    1       26.298  47.607 210.776  0.00  0.00    +0.221 C 
ATOM      8  N   LIG    1       26.000  46.607 209.905  0.00  0.00    -0.298 N 
ATOM      9  C   LIG    1       25.005  46.604 208.803  0.00  0.00    +0.126 C 
ATOM     10  C   LIG    1       23.824  45.709 209.254  0.00  0.00    +0.125 C 
ATOM     11  N   LIG    1       24.356  44.344 209.498  0.00  0.00    -0.312 N 
ATOM     12  C   LIG    1       25.390  44.342 210.580  0.00  0.00    +0.125 C 
ATOM     13  C   LIG    1       26.559  45.239 210.113  0.00  0.00    +0.126 C 
ATOM     14  O   LIG    1       27.071  47.368 211.703  0.00  0.00    -0.275 OA
BRANCH   7  15
ATOM     15  C   LIG    1       25.708  49.063 210.667  0.00  0.00    +0.041 C 
ATOM     16  C   LIG    1       26.392  50.009 211.692  0.00  0.00    +0.020 C 
ATOM     17  C   LIG    1       26.040  49.735 209.311  0.00  0.00    +0.020 C 
BRANCH  15  19
ATOM     18  C   LIG    1       23.728  48.565 212.297  0.00  0.00    +0.005 C 
ATOM     19  C   LIG    1       24.180  49.153 210.949  0.00  0.00    +0.012 C 
ENDBRANCH  15  19
ENDBRANCH   7  15
ENDBRANCH   1  11
BRANCH   4  20
ATOM     20  N   LIG    1       20.371  40.501 209.826  0.00  0.00    -0.280 N 
ATOM     21  H   LIG    1       20.264  40.027 210.730  0.00  0.00    +0.155 HD
ATOM     22  C   LIG    1       19.409  40.215 208.880  0.00  0.00    +0.248 C 
ATOM     23  O   LIG    1       19.350  40.908 207.873  0.00  0.00    -0.270 OA
BRANCH  22  24
ATOM     24  C   LIG    1       18.475  39.119 209.152  0.00  0.00    +0.037 A 
ATOM     25  C   LIG    1       17.482  38.753 208.221  0.00  0.00    +0.016 A 
ATOM     26  C   LIG    1       16.613  37.700 208.493  0.00  0.00    +0.039 A 
ATOM     27  C   LIG    1       16.738  37.024 209.699  0.00  0.00    +0.123 A 
ATOM     28  F   LIG    1       15.892  35.996 209.963  0.00  0.00    -0.205 F 
ATOM     29  C   LIG    1       17.694  37.366 210.645  0.00  0.00    +0.039 A 
ATOM     30  C   LIG    1       18.560  38.419 210.369  0.00  0.00    +0.016 A 
ENDBRANCH  22  24
ENDBRANCH   4  20
TORSDOF 5
