REMARK VINA RESULT:      -9.0     19.128     26.241
REMARK  Name = ZINC000009035748
REMARK                            x       y       z     vdW  Elec       q    Type
REMARK                         _______ _______ _______ _____ _____    ______ ____
ROOT
ATOM      1  C   LIG    1       22.751  44.475 189.976  0.00  0.00    +0.218 C 
ATOM      2  N   LIG    1       21.754  45.043 189.260  0.00  0.00    -0.297 N 
ATOM      3  C   LIG    1       22.106  45.639 187.946  0.00  0.00    +0.143 C 
ATOM      4  C   LIG    1       21.090  46.711 187.554  0.00  0.00    -0.025 A 
ATOM      5  C   LIG    1       21.217  47.310 186.302  0.00  0.00    +0.028 A 
ATOM      6  C   LIG    1       20.310  48.290 185.901  0.00  0.00    +0.034 A 
ATOM      7  C   LIG    1       19.279  48.692 186.751  0.00  0.00    +0.023 A 
ATOM      8  C   LIG    1       19.154  48.097 187.999  0.00  0.00    +0.006 A 
ATOM      9  C   LIG    1       20.050  47.106 188.405  0.00  0.00    -0.041 A 
ATOM     10  C   LIG    1       19.897  46.472 189.771  0.00  0.00    +0.054 C 
ATOM     11  C   LIG    1       20.318  45.003 189.618  0.00  0.00    +0.113 C 
ATOM     12  O   LIG    1       23.894  44.439 189.523  0.00  0.00    -0.275 OA
ENDROOT
BRANCH   6  13
ATOM     13  N   LIG    1       20.501  48.870 184.625  0.00  0.00    -0.283 N 
ATOM     14  H   LIG    1       20.054  48.404 183.824  0.00  0.00    +0.155 HD
ATOM     15  C   LIG    1       21.225  49.994 184.311  0.00  0.00    +0.255 C 
ATOM     16  O   LIG    1       21.794  50.633 185.172  0.00  0.00    -0.272 OA
BRANCH  15  17
ATOM     17  C   LIG    1       21.242  50.426 182.856  0.00  0.00    +0.324 C 
BRANCH  17  18
ATOM     18  O   LIG    1       20.306  51.547 182.718  0.00  0.00    -0.483 OA
BRANCH  18  19
ATOM     19  C   LIG    1       19.050  51.451 182.157  0.00  0.00    +0.121 A 
ATOM     20  C   LIG    1       18.792  52.246 181.042  0.00  0.00    +0.047 A 
ATOM     21  C   LIG    1       17.543  52.191 180.432  0.00  0.00    +0.023 A 
ATOM     22  C   LIG    1       16.557  51.341 180.939  0.00  0.00    +0.041 A 
ATOM     23 CL   LIG    1       15.003  51.274 180.180  0.00  0.00    -0.084 Cl
ATOM     24  C   LIG    1       16.820  50.545 182.058  0.00  0.00    +0.023 A 
ATOM     25  C   LIG    1       18.069  50.598 182.670  0.00  0.00    +0.047 A 
ENDBRANCH  18  19
ENDBRANCH  17  18
ENDBRANCH  15  17
ENDBRANCH   6  13
BRANCH   1  27
ATOM     26  C   LIG    1       23.717  43.092 191.908  0.00  0.00    +0.017 C 
ATOM     27  C   LIG    1       22.476  43.819 191.354  0.00  0.00    +0.069 C 
ATOM     28  C   LIG    1       22.015  44.832 192.420  0.00  0.00    +0.017 C 
ENDBRANCH   1  27
TORSDOF 5
