REMARK VINA RESULT:      -8.1      3.529      4.439
REMARK  Name = ZINC000000538144
REMARK                            x       y       z     vdW  Elec       q    Type
REMARK                         _______ _______ _______ _____ _____    ______ ____
ROOT
ATOM      1  C   LIG    1       22.831  44.616 190.305  0.00  0.00    +0.163 A 
ATOM      2  C   LIG    1       22.073  45.109 189.195  0.00  0.00    +0.162 A 
ATOM      3  C   LIG    1       22.303  44.632 187.915  0.00  0.00    +0.059 A 
ATOM      4  C   LIG    1       23.286  43.647 187.711  0.00  0.00    +0.007 A 
ATOM      5  C   LIG    1       23.748  42.951 186.567  0.00  0.00    -0.018 A 
ATOM      6  C   LIG    1       24.724  42.089 186.961  0.00  0.00    +0.017 A 
ATOM      7  C   LIG    1       25.555  41.114 186.155  0.00  0.00    +0.063 C 
ATOM      8  N   LIG    1       24.895  42.234 188.324  0.00  0.00    -0.358 N 
ATOM      9  H   LIG    1       25.575  41.716 188.901  0.00  0.00    +0.166 HD
ATOM     10  C   LIG    1       24.012  43.184 188.802  0.00  0.00    +0.051 A 
ATOM     11  C   LIG    1       23.810  43.649 190.110  0.00  0.00    +0.075 A 
ENDROOT
BRANCH   1  13
ATOM     12  C   LIG    1       21.636  44.580 192.535  0.00  0.00    +0.277 C 
ATOM     13  O   LIG    1       22.594  45.105 191.589  0.00  0.00    -0.491 OA
ENDBRANCH   1  13
BRANCH   2  14
ATOM     14  O   LIG    1       21.068  46.075 189.290  0.00  0.00    -0.491 OA
ATOM     15  C   LIG    1       19.704  45.898 189.726  0.00  0.00    +0.277 C 
ENDBRANCH   2  14
BRANCH   5  16
ATOM     16  C   LIG    1       23.214  43.142 185.163  0.00  0.00    +0.053 C 
BRANCH  16  17
ATOM     17  C   LIG    1       23.850  44.449 184.662  0.00  0.00    +0.089 C 
BRANCH  17  18
ATOM     18  N   LIG    1       23.117  44.851 183.430  0.00  0.00    -0.299 NA
ATOM     19  C   LIG    1       23.817  45.899 182.611  0.00  0.00    +0.103 C 
ATOM     20  C   LIG    1       23.838  47.271 183.342  0.00  0.00    +0.120 C 
ATOM     21  N   LIG    1       22.436  47.662 183.638  0.00  0.00    -0.327 N 
ATOM     22  C   LIG    1       21.763  46.662 184.502  0.00  0.00    +0.120 C 
ATOM     23  C   LIG    1       21.728  45.315 183.731  0.00  0.00    +0.103 C 
BRANCH  21  24
ATOM     24  C   LIG    1       22.287  49.029 183.960  0.00  0.00    +0.030 A 
ATOM     25  C   LIG    1       21.158  49.767 183.577  0.00  0.00    +0.023 A 
ATOM     26  C   LIG    1       21.058  51.109 183.926  0.00  0.00    +0.002 A 
ATOM     27  C   LIG    1       22.074  51.724 184.653  0.00  0.00    +0.000 A 
ATOM     28  C   LIG    1       23.198  50.993 185.030  0.00  0.00    +0.002 A 
ATOM     29  C   LIG    1       23.309  49.652 184.682  0.00  0.00    +0.023 A 
ENDBRANCH  21  24
ENDBRANCH  17  18
ENDBRANCH  16  17
ENDBRANCH   5  16
TORSDOF 6
