REMARK VINA RESULT:      -7.2      3.117      8.765
REMARK  Name = ZINC000000538650
REMARK                            x       y       z     vdW  Elec       q    Type
REMARK                         _______ _______ _______ _____ _____    ______ ____
ROOT
ATOM      1  C   LIG    1       21.090  41.141 210.796  0.00  0.00    +0.076 A 
ATOM      2  N   LIG    1       19.984  40.632 210.087  0.00  0.00    -0.213 N 
ATOM      3  N   LIG    1       19.191  41.296 209.193  0.00  0.00    -0.172 NA
ATOM      4  C   LIG    1       18.318  40.408 208.799  0.00  0.00    +0.148 A 
ATOM      5  C   LIG    1       18.499  39.171 209.415  0.00  0.00    +0.087 A 
ATOM      6  C   LIG    1       19.586  39.319 210.244  0.00  0.00    +0.167 A 
ATOM      7  N   LIG    1       20.267  38.444 211.080  0.00  0.00    -0.235 NA
ATOM      8  C   LIG    1       21.291  38.891 211.738  0.00  0.00    +0.115 A 
ATOM      9  C   LIG    1       21.726  40.240 211.622  0.00  0.00    +0.048 A 
ENDROOT
BRANCH   1  12
ATOM     10  C   LIG    1       22.933  44.255 209.737  0.00  0.00    +0.037 A 
ATOM     11  C   LIG    1       22.572  42.912 209.844  0.00  0.00    +0.033 A 
ATOM     12  C   LIG    1       21.471  42.538 210.624  0.00  0.00    +0.002 A 
ATOM     13  C   LIG    1       20.740  43.541 211.282  0.00  0.00    +0.010 A 
ATOM     14  C   LIG    1       21.101  44.880 211.166  0.00  0.00    +0.002 A 
ATOM     15  C   LIG    1       22.200  45.244 210.396  0.00  0.00    +0.023 A 
BRANCH  10  18
ATOM     16  C   LIG    1       25.234  45.866 207.126  0.00  0.00    +0.109 C 
ATOM     17  C   LIG    1       24.006  45.558 207.950  0.00  0.00    +0.216 C 
ATOM     18  N   LIG    1       24.077  44.610 208.967  0.00  0.00    -0.275 N 
ATOM     19  C   LIG    1       25.332  43.892 209.254  0.00  0.00    +0.138 C 
ATOM     20  O   LIG    1       22.962  46.134 207.725  0.00  0.00    -0.276 OA
ENDBRANCH  10  18
ENDBRANCH   1  12
BRANCH   5  21
ATOM     21  C   LIG    1       17.691  38.003 209.151  0.00  0.00    +0.205 C 
ATOM     22  O   LIG    1       17.422  37.748 207.977  0.00  0.00    -0.286 OA
BRANCH  21  23
ATOM     23  C   LIG    1       17.147  37.141 210.192  0.00  0.00    +0.060 A 
ATOM     24  S   LIG    1       16.325  37.816 211.567  0.00  0.00    -0.093 S 
ATOM     25  C   LIG    1       16.063  36.252 212.240  0.00  0.00    +0.046 A 
ATOM     26  C   LIG    1       16.586  35.266 211.449  0.00  0.00    +0.008 A 
ATOM     27  C   LIG    1       17.202  35.765 210.296  0.00  0.00    +0.019 A 
ENDBRANCH  21  23
ENDBRANCH   5  21
TORSDOF 4
