REMARK VINA RESULT:     -10.2     30.666     31.774
REMARK  Name = ZINC000000603769
REMARK                            x       y       z     vdW  Elec       q    Type
REMARK                         _______ _______ _______ _____ _____    ______ ____
ROOT
ATOM      1  C   LIG    1       21.309  46.673 187.380  0.00  0.00    +0.139 A 
ATOM      2  N   LIG    1       20.285  47.543 187.551  0.00  0.00    -0.336 N 
ATOM      3  H   LIG    1       19.753  47.700 188.421  0.00  0.00    +0.167 HD
ATOM      4  C   LIG    1       20.055  48.194 186.401  0.00  0.00    +0.093 A 
ATOM      5  C   LIG    1       20.951  47.658 185.509  0.00  0.00    +0.099 A 
ATOM      6  N   LIG    1       21.733  46.738 186.137  0.00  0.00    -0.227 NA
ENDROOT
BRANCH   5   7
ATOM      7  C   LIG    1       21.074  47.966 184.090  0.00  0.00    +0.006 A 
ATOM      8  C   LIG    1       20.146  47.448 183.169  0.00  0.00    +0.059 A 
ATOM      9  C   LIG    1       20.303  47.744 181.825  0.00  0.00    +0.167 A 
ATOM     10  O   LIG    1       19.524  47.332 180.799  0.00  0.00    -0.453 OA
ATOM     11  C   LIG    1       20.109  47.923 179.574  0.00  0.00    +0.466 C 
ATOM     12  O   LIG    1       21.293  48.686 180.037  0.00  0.00    -0.453 OA
ATOM     13  C   LIG    1       21.333  48.535 181.378  0.00  0.00    +0.166 A 
ATOM     14  C   LIG    1       22.258  49.076 182.259  0.00  0.00    +0.050 A 
ATOM     15  C   LIG    1       22.120  48.790 183.618  0.00  0.00    +0.014 A 
ENDBRANCH   5   7
BRANCH   1  19
ATOM     16  C   LIG    1       22.739  44.219 190.597  0.00  0.00    +0.037 A 
ATOM     17  C   LIG    1       21.657  45.097 190.773  0.00  0.00    +0.014 A 
ATOM     18  C   LIG    1       21.206  45.887 189.724  0.00  0.00    +0.012 A 
ATOM     19  C   LIG    1       21.810  45.828 188.460  0.00  0.00    +0.017 A 
ATOM     20  C   LIG    1       22.887  44.945 188.282  0.00  0.00    +0.012 A 
ATOM     21  C   LIG    1       23.340  44.155 189.332  0.00  0.00    +0.014 A 
BRANCH  16  25
ATOM     22  N   LIG    1       24.531  42.965 191.720  0.00  0.00    -0.325 N 
ATOM     23  H   LIG    1       25.170  43.137 190.936  0.00  0.00    +0.145 HD
ATOM     24  H   LIG    1       24.802  42.336 192.486  0.00  0.00    +0.145 HD
ATOM     25  C   LIG    1       23.245  43.380 191.687  0.00  0.00    +0.242 C 
ATOM     26  O   LIG    1       22.569  42.985 192.621  0.00  0.00    -0.270 OA
ENDBRANCH  16  25
ENDBRANCH   1  19
BRANCH   4  27
ATOM     27  C   LIG    1       19.046  49.232 186.335  0.00  0.00    +0.089 A 
ATOM     28  N   LIG    1       18.158  49.297 187.347  0.00  0.00    -0.253 NA
ATOM     29  C   LIG    1       17.206  50.227 187.342  0.00  0.00    +0.111 A 
ATOM     30  C   LIG    1       17.096  51.160 186.316  0.00  0.00    +0.020 A 
ATOM     31  C   LIG    1       18.003  51.133 185.268  0.00  0.00    +0.004 A 
ATOM     32  C   LIG    1       18.989  50.160 185.286  0.00  0.00    +0.030 A 
ENDBRANCH   4  27
TORSDOF 4
