REMARK VINA RESULT:      -7.0     29.198     31.523
REMARK  Name = ZINC000000622958
REMARK                            x       y       z     vdW  Elec       q    Type
REMARK                         _______ _______ _______ _____ _____    ______ ____
ROOT
ATOM      1  C   LIG    1       29.493  16.505 199.465  0.00  0.00    +0.271 C 
ATOM      2  N   LIG    1       28.281  17.216 199.147  0.00  0.00    -0.157 N 
ATOM      3  C   LIG    1       28.306  18.464 199.560  0.00  0.00    +0.250 C 
ATOM      4  C   LIG    1       27.180  19.471 199.383  0.00  0.00    +0.124 C 
ATOM      5  C   LIG    1       27.641  20.508 198.333  0.00  0.00    +0.012 C 
ATOM      6  C   LIG    1       28.595  21.524 198.991  0.00  0.00    +0.004 C 
ATOM      7  C   LIG    1       29.974  20.982 199.423  0.00  0.00    +0.045 C 
ATOM      8  C   LIG    1       29.824  20.060 200.649  0.00  0.00    +0.236 C 
ATOM      9  N   LIG    1       29.454  18.736 200.127  0.00  0.00    -0.258 N 
ATOM     10  C   LIG    1       30.403  17.601 200.075  0.00  0.00    +0.323 C 
ENDROOT
BRANCH   1  11
ATOM     11  C   LIG    1       30.117  15.874 198.215  0.00  0.00    +0.034 A 
ATOM     12  C   LIG    1       30.805  16.689 197.299  0.00  0.00    +0.060 A 
ATOM     13  C   LIG    1       31.357  16.107 196.169  0.00  0.00    +0.167 A 
ATOM     14  O   LIG    1       32.041  16.732 195.188  0.00  0.00    -0.453 OA
ATOM     15  C   LIG    1       32.415  15.674 194.214  0.00  0.00    +0.466 C 
ATOM     16  O   LIG    1       31.863  14.419 194.776  0.00  0.00    -0.453 OA
ATOM     17  C   LIG    1       31.252  14.761 195.930  0.00  0.00    +0.166 A 
ATOM     18  C   LIG    1       30.584  13.926 196.812  0.00  0.00    +0.050 A 
ATOM     19  C   LIG    1       30.015  14.490 197.957  0.00  0.00    +0.014 A 
ENDBRANCH   1  11
BRANCH   2  20
ATOM     20  C   LIG    1       27.221  16.631 198.406  0.00  0.00    +0.124 A 
ATOM     21  C   LIG    1       26.144  16.055 199.081  0.00  0.00    +0.050 A 
ATOM     22  C   LIG    1       25.104  15.496 198.345  0.00  0.00    +0.024 A 
ATOM     23  C   LIG    1       25.146  15.518 196.947  0.00  0.00    +0.041 A 
ATOM     24 CL   LIG    1       23.850  14.823 196.036  0.00  0.00    -0.084 Cl
ATOM     25  C   LIG    1       26.232  16.098 196.281  0.00  0.00    +0.024 A 
ATOM     26  C   LIG    1       27.275  16.658 197.012  0.00  0.00    +0.050 A 
ENDBRANCH   2  20
BRANCH   1  27
ATOM     27  O   LIG    1       29.139  15.549 200.455  0.00  0.00    -0.347 OA
ATOM     28  H   LIG    1       29.924  15.014 200.646  0.00  0.00    +0.215 HD
ENDBRANCH   1  27
TORSDOF 3
