REMARK VINA RESULT:      -6.5      1.996      2.204
REMARK  Name = ZINC000070728784
REMARK                            x       y       z     vdW  Elec       q    Type
REMARK                         _______ _______ _______ _____ _____    ______ ____
ROOT
ATOM      1  C   LIG    1       20.620  48.524 184.839  0.00  0.00    +0.251 C 
ATOM      2  N   LIG    1       20.235  47.398 184.148  0.00  0.00    -0.261 N 
ATOM      3  H   LIG    1       19.221  47.262 184.055  0.00  0.00    +0.157 HD
ATOM      4  O   LIG    1       21.794  48.871 184.813  0.00  0.00    -0.270 OA
ENDROOT
BRANCH   1   6
ATOM      5  C   LIG    1       18.906  50.373 185.073  0.00  0.00    +0.020 A 
ATOM      6  C   LIG    1       19.609  49.256 185.594  0.00  0.00    +0.050 A 
ATOM      7  C   LIG    1       19.304  48.821 186.893  0.00  0.00    +0.014 A 
ATOM      8  C   LIG    1       18.301  49.424 187.638  0.00  0.00    +0.001 A 
ATOM      9  C   LIG    1       17.579  50.485 187.097  0.00  0.00    +0.001 A 
ATOM     10  C   LIG    1       17.877  50.955 185.827  0.00  0.00    +0.015 A 
BRANCH   5  11
ATOM     11  S   LIG    1       19.260  51.107 183.527  0.00  0.00    -0.122 S 
BRANCH  11  13
ATOM     12  C   LIG    1       17.016  50.406 182.220  0.00  0.00    +0.019 C 
ATOM     13  C   LIG    1       18.476  49.968 182.331  0.00  0.00    +0.045 C 
ATOM     14  C   LIG    1       19.223  50.155 181.010  0.00  0.00    +0.019 C 
ENDBRANCH  11  13
ENDBRANCH   5  11
ENDBRANCH   1   6
BRANCH   2  15
ATOM     15  C   LIG    1       21.047  46.458 183.501  0.00  0.00    +0.165 A 
ATOM     16  S   LIG    1       21.195  46.603 181.791  0.00  0.00    -0.060 S 
ATOM     17  C   LIG    1       22.206  45.221 181.834  0.00  0.00    +0.073 A 
ATOM     18  C   LIG    1       22.353  44.758 183.105  0.00  0.00    +0.064 A 
ATOM     19  N   LIG    1       21.684  45.470 184.060  0.00  0.00    -0.228 NA
BRANCH  18  20
ATOM     20  C   LIG    1       23.189  43.547 183.477  0.00  0.00    +0.140 C 
BRANCH  20  21
ATOM     21  N   LIG    1       24.461  44.038 184.090  0.00  0.00    -0.292 NA
ATOM     22  C   LIG    1       25.428  44.609 183.096  0.00  0.00    +0.113 C 
ATOM     23  C   LIG    1       26.013  43.472 182.222  0.00  0.00    +0.175 C 
ATOM     24  O   LIG    1       26.646  42.539 183.099  0.00  0.00    -0.377 OA
ATOM     25  C   LIG    1       25.725  41.903 183.982  0.00  0.00    +0.175 C 
ATOM     26  C   LIG    1       25.136  42.995 184.911  0.00  0.00    +0.113 C 
ENDBRANCH  20  21
ENDBRANCH  18  20
ENDBRANCH   2  15
TORSDOF 6
