REMARK VINA RESULT:      -7.5     20.792     23.121
REMARK  Name = ZINC000022624335
REMARK                            x       y       z     vdW  Elec       q    Type
REMARK                         _______ _______ _______ _____ _____    ______ ____
ROOT
ATOM      1  C   LIG    1       26.907  32.621 202.642  0.00  0.00    +0.121 A 
ATOM      2  N   LIG    1       27.726  32.750 203.694  0.00  0.00    -0.238 NA
ATOM      3  C   LIG    1       28.017  31.669 204.420  0.00  0.00    +0.136 A 
ATOM      4  C   LIG    1       27.497  30.407 204.112  0.00  0.00    +0.052 A 
ATOM      5  C   LIG    1       26.655  30.256 203.012  0.00  0.00    +0.028 A 
ATOM      6  C   LIG    1       26.362  31.384 202.268  0.00  0.00    +0.045 A 
ENDROOT
BRANCH   1  11
ATOM      7  C   LIG    1       25.173  35.757 198.733  0.00  0.00    +0.221 C 
ATOM      8  N   LIG    1       25.806  35.628 199.929  0.00  0.00    -0.298 N 
ATOM      9  C   LIG    1       27.249  35.400 200.194  0.00  0.00    +0.126 C 
ATOM     10  C   LIG    1       27.403  33.934 200.667  0.00  0.00    +0.125 C 
ATOM     11  N   LIG    1       26.600  33.771 201.907  0.00  0.00    -0.312 N 
ATOM     12  C   LIG    1       25.148  34.038 201.660  0.00  0.00    +0.125 C 
ATOM     13  C   LIG    1       25.015  35.504 201.188  0.00  0.00    +0.126 C 
ATOM     14  O   LIG    1       23.944  35.817 198.723  0.00  0.00    -0.275 OA
BRANCH   7  15
ATOM     15  C   LIG    1       25.926  35.837 197.352  0.00  0.00    +0.041 C 
ATOM     16  C   LIG    1       26.467  37.272 197.107  0.00  0.00    +0.020 C 
ATOM     17  C   LIG    1       27.215  34.979 197.332  0.00  0.00    +0.020 C 
BRANCH  15  19
ATOM     18  C   LIG    1       25.757  35.523 194.763  0.00  0.00    +0.005 C 
ATOM     19  C   LIG    1       25.035  35.495 196.122  0.00  0.00    +0.012 C 
ENDBRANCH  15  19
ENDBRANCH   7  15
ENDBRANCH   1  11
BRANCH   4  20
ATOM     20  N   LIG    1       27.875  29.289 204.912  0.00  0.00    -0.280 N 
ATOM     21  H   LIG    1       28.806  29.305 205.344  0.00  0.00    +0.155 HD
ATOM     22  C   LIG    1       27.077  28.215 205.246  0.00  0.00    +0.248 C 
ATOM     23  O   LIG    1       25.890  28.249 204.949  0.00  0.00    -0.270 OA
BRANCH  22  24
ATOM     24  C   LIG    1       27.684  27.102 205.982  0.00  0.00    +0.037 A 
ATOM     25  C   LIG    1       27.474  26.935 207.366  0.00  0.00    +0.016 A 
ATOM     26  C   LIG    1       28.050  25.864 208.043  0.00  0.00    +0.039 A 
ATOM     27  C   LIG    1       28.838  24.969 207.333  0.00  0.00    +0.123 A 
ATOM     28  F   LIG    1       29.397  23.923 207.992  0.00  0.00    -0.205 F 
ATOM     29  C   LIG    1       29.078  25.110 205.973  0.00  0.00    +0.039 A 
ATOM     30  C   LIG    1       28.501  26.182 205.300  0.00  0.00    +0.016 A 
ENDBRANCH  22  24
ENDBRANCH   4  20
TORSDOF 5
