REMARK VINA RESULT:      -5.7     29.885     31.046
REMARK  Name = ZINC000000623135
REMARK                            x       y       z     vdW  Elec       q    Type
REMARK                         _______ _______ _______ _____ _____    ______ ____
ROOT
ATOM      1  N   LIG    1       33.325  16.729 196.852  0.00  0.00    -0.299 N 
ATOM      2  H   LIG    1       33.692  16.832 197.804  0.00  0.00    +0.150 HD
ENDROOT
BRANCH   1   5
ATOM      3  C   LIG    1       30.521  17.569 196.068  0.00  0.00    +0.409 C 
ATOM      4  N   LIG    1       31.533  18.171 196.761  0.00  0.00    -0.212 N 
ATOM      5  C   LIG    1       32.910  17.988 196.317  0.00  0.00    +0.235 C 
ATOM      6  S   LIG    1       33.907  19.181 197.311  0.00  0.00    -0.086 S 
ATOM      7  C   LIG    1       32.528  19.547 198.296  0.00  0.00    +0.006 C 
ATOM      8  C   LIG    1       32.382  20.387 199.525  0.00  0.00    +0.044 C 
ATOM      9  C   LIG    1       30.820  20.495 199.595  0.00  0.00    +0.011 C 
ATOM     10  C   LIG    1       30.215  19.307 198.775  0.00  0.00    +0.052 C 
ATOM     11  C   LIG    1       31.396  18.984 197.916  0.00  0.00    +0.029 C 
ATOM     12  O   LIG    1       29.351  17.597 196.438  0.00  0.00    -0.226 OA
BRANCH   3  13
ATOM     13  O   LIG    1       30.889  16.950 194.922  0.00  0.00    -0.450 OA
BRANCH  13  15
ATOM     14  C   LIG    1       30.688  14.597 195.016  0.00  0.00    +0.048 C 
ATOM     15  C   LIG    1       30.129  15.858 194.357  0.00  0.00    +0.230 C 
ENDBRANCH  13  15
ENDBRANCH   3  13
ENDBRANCH   1   5
BRANCH   1  16
ATOM     16  C   LIG    1       34.110  15.944 196.060  0.00  0.00    +0.136 C 
ATOM     17  S   LIG    1       35.212  14.817 196.625  0.00  0.00    -0.018 S 
BRANCH  16  18
ATOM     18  N   LIG    1       33.903  16.138 194.704  0.00  0.00    -0.297 N 
ATOM     19  H   LIG    1       32.915  16.232 194.437  0.00  0.00    +0.154 HD
BRANCH  18  20
ATOM     20  C   LIG    1       34.882  16.465 193.742  0.00  0.00    +0.033 A 
ATOM     21  C   LIG    1       35.828  17.463 194.001  0.00  0.00    +0.027 A 
ATOM     22  C   LIG    1       36.776  17.773 193.033  0.00  0.00    +0.047 A 
ATOM     23  C   LIG    1       36.780  17.081 191.823  0.00  0.00    +0.120 A 
ATOM     24  C   LIG    1       35.843  16.075 191.568  0.00  0.00    +0.047 A 
ATOM     25  C   LIG    1       34.891  15.765 192.534  0.00  0.00    +0.027 A 
BRANCH  23  26
ATOM     26  O   LIG    1       37.744  17.436 190.899  0.00  0.00    -0.495 OA
ATOM     27  C   LIG    1       37.492  17.730 189.506  0.00  0.00    +0.277 C 
ENDBRANCH  23  26
ENDBRANCH  18  20
ENDBRANCH  16  18
ENDBRANCH   1  16
TORSDOF 7
