REMARK VINA RESULT:      -7.6      0.000      0.000
REMARK  Name = ligand.pdb
REMARK  7 active torsions:
REMARK  status: ('A' for Active; 'I' for Inactive)
REMARK    1  A    between atoms: C1_1  and  C6_8
REMARK    2  A    between atoms: C2_3  and  C3_5
REMARK    3  A    between atoms: C2_3  and  C11_13
REMARK    4  A    between atoms: C3_5  and  C4_6
REMARK    5  A    between atoms: C3_5  and  C5_7
REMARK    6  A    between atoms: C6_8  and  C7_9
REMARK    7  A    between atoms: C6_8  and  C8_10
REMARK                            x       y       z     vdW  Elec       q    Type
REMARK                         _______ _______ _______ _____ _____    ______ ____
ROOT
ATOM      1  C8  IBP A 701      26.659  33.242 202.078  0.00  0.00    +0.000 A 
ATOM      2  C9  IBP A 701      27.449  33.665 200.983  0.00  0.00    +0.000 A 
ATOM      3  C10 IBP A 701      26.873  34.345 199.880  0.00  0.00    +0.000 A 
ATOM      4  C11 IBP A 701      25.483  34.629 199.828  0.00  0.00    +0.000 A 
ATOM      5  C12 IBP A 701      24.696  34.209 200.919  0.00  0.00    +0.000 A 
ATOM      6  C13 IBP A 701      25.271  33.528 202.025  0.00  0.00    +0.000 A 
ENDROOT
BRANCH   1   7
ATOM      7  C6  IBP A 701      27.309  32.490 203.264  0.00  0.00    +0.000 C 
ATOM      8  C7  IBP A 701      28.729  32.966 203.585  0.00  0.00    +0.000 C 
BRANCH   7   9
ATOM      9  C1  IBP A 701      27.284  30.998 202.966  0.00  0.00    +0.000 C 
ATOM     10  O1  IBP A 701      28.447  30.500 202.638  0.00  0.00    +0.000 OA
ATOM     11  O2  IBP A 701      26.268  30.313 203.003  0.00  0.00    +0.000 OA
ENDBRANCH   7   9
ENDBRANCH   1   7
BRANCH   4  12
ATOM     12  C2  IBP A 701      24.875  35.354 198.632  0.00  0.00    +0.000 C 
BRANCH  12  13
ATOM     13  C3  IBP A 701      25.796  35.485 197.412  0.00  0.00    +0.000 C 
ATOM     14  C4  IBP A 701      26.247  36.931 197.252  0.00  0.00    +0.000 C 
ATOM     15  C5  IBP A 701      25.101  35.034 196.148  0.00  0.00    +0.000 C 
ENDBRANCH  12  13
ENDBRANCH   4  12
TORSDOF 4
