REMARK VINA RESULT:      -8.3      5.539      7.051
REMARK  Name = ZINC000000593415
REMARK                            x       y       z     vdW  Elec       q    Type
REMARK                         _______ _______ _______ _____ _____    ______ ____
ROOT
ATOM      1  C   LIG    1       19.057  49.792 184.362  0.00  0.00    -0.043 A 
ATOM      2  C   LIG    1       19.175  48.400 184.354  0.00  0.00    +0.006 A 
ATOM      3  C   LIG    1       19.400  47.696 185.532  0.00  0.00    +0.023 A 
ATOM      4  C   LIG    1       19.514  48.389 186.736  0.00  0.00    +0.034 A 
ATOM      5  C   LIG    1       19.387  49.777 186.766  0.00  0.00    +0.023 A 
ATOM      6  C   LIG    1       19.163  50.472 185.583  0.00  0.00    +0.006 A 
ENDROOT
BRANCH   4   7
ATOM      7  N   LIG    1       19.735  47.634 187.911  0.00  0.00    -0.282 N 
ATOM      8  H   LIG    1       19.017  47.695 188.640  0.00  0.00    +0.155 HD
ATOM      9  C   LIG    1       20.760  46.734 188.136  0.00  0.00    +0.248 C 
ATOM     10  O   LIG    1       21.518  46.456 187.218  0.00  0.00    -0.270 OA
BRANCH   9  11
ATOM     11  C   LIG    1       20.866  46.118 189.462  0.00  0.00    +0.042 A 
ATOM     12  C   LIG    1       20.343  46.738 190.614  0.00  0.00    +0.051 A 
ATOM     13  C   LIG    1       20.459  46.106 191.847  0.00  0.00    +0.127 A 
ATOM     14  F   LIG    1       19.945  46.715 192.935  0.00  0.00    -0.205 F 
ATOM     15  C   LIG    1       21.085  44.878 191.999  0.00  0.00    +0.076 A 
ATOM     16  C   LIG    1       21.606  44.287 190.859  0.00  0.00    +0.127 A 
ATOM     17  F   LIG    1       22.225  43.094 190.971  0.00  0.00    -0.205 F 
ATOM     18  C   LIG    1       21.512  44.878 189.603  0.00  0.00    +0.051 A 
ENDBRANCH   9  11
ENDBRANCH   4   7
BRANCH   1  19
ATOM     19  C   LIG    1       18.864  50.519 183.026  0.00  0.00    +0.031 C 
ATOM     20  C   LIG    1       19.198  52.018 183.139  0.00  0.00    +0.014 C 
BRANCH  19  21
ATOM     21  C   LIG    1       19.698  49.805 181.937  0.00  0.00    +0.113 C 
BRANCH  21  22
ATOM     22  N   LIG    1       21.011  50.438 181.893  0.00  0.00    -0.194 NA
ATOM     23  H   LIG    1       21.005  51.206 182.568  0.00  0.00    +0.148 HD
BRANCH  22  24
ATOM     24  S   LIG    1       22.317  49.475 182.057  0.00  0.00    +0.032 S 
ATOM     25  O   LIG    1       21.867  48.130 182.111  0.00  0.00    -0.158 OA
ATOM     26  O   LIG    1       23.256  49.801 181.042  0.00  0.00    -0.158 OA
BRANCH  24  28
ATOM     27  C   LIG    1       22.552  51.265 184.271  0.00  0.00    +0.033 C 
ATOM     28  C   LIG    1       23.022  49.918 183.662  0.00  0.00    +0.142 C 
ATOM     29  C   LIG    1       22.806  48.884 184.796  0.00  0.00    +0.033 C 
ENDBRANCH  24  28
ENDBRANCH  22  24
ENDBRANCH  21  22
ENDBRANCH  19  21
ENDBRANCH   1  19
TORSDOF 7
