MODEL 1
REMARK VINA RESULT:      -6.9      0.000      0.000
REMARK  Name = ZINC000000623135
REMARK                            x       y       z     vdW  Elec       q    Type
REMARK                         _______ _______ _______ _____ _____    ______ ____
ROOT
ATOM      1  N   LIG    1       25.112  44.988 183.178  0.00  0.00    -0.299 N 
ATOM      2  H   LIG    1       25.066  45.367 184.130  0.00  0.00    +0.150 HD
ENDROOT
BRANCH   1   5
ATOM      3  C   LIG    1       26.133  42.215 182.509  0.00  0.00    +0.409 C 
ATOM      4  N   LIG    1       25.259  42.705 183.436  0.00  0.00    -0.212 N 
ATOM      5  C   LIG    1       24.350  43.784 183.062  0.00  0.00    +0.235 C 
ATOM      6  S   LIG    1       23.165  43.935 184.468  0.00  0.00    -0.086 S 
ATOM      7  C   LIG    1       24.108  42.829 185.412  0.00  0.00    +0.006 C 
ATOM      8  C   LIG    1       23.987  42.385 186.836  0.00  0.00    +0.044 C 
ATOM      9  C   LIG    1       24.956  41.155 186.819  0.00  0.00    +0.011 C 
ATOM     10  C   LIG    1       25.934  41.322 185.608  0.00  0.00    +0.052 C 
ATOM     11  C   LIG    1       25.128  42.274 184.782  0.00  0.00    +0.029 C 
ATOM     12  O   LIG    1       26.989  41.379 182.778  0.00  0.00    -0.226 OA
BRANCH   3  13
ATOM     13  O   LIG    1       25.979  42.697 181.254  0.00  0.00    -0.450 OA
BRANCH  13  15
ATOM     14  C   LIG    1       26.406  43.880 179.253  0.00  0.00    +0.048 C 
ATOM     15  C   LIG    1       27.023  43.435 180.579  0.00  0.00    +0.230 C 
ENDBRANCH  13  15
ENDBRANCH   3  13
ENDBRANCH   1   5
BRANCH   1  16
ATOM     16  C   LIG    1       24.926  45.938 182.217  0.00  0.00    +0.136 C 
ATOM     17  S   LIG    1       23.671  45.942 181.108  0.00  0.00    -0.018 S 
BRANCH  16  18
ATOM     18  N   LIG    1       25.874  46.947 182.241  0.00  0.00    -0.297 N 
ATOM     19  H   LIG    1       25.674  47.697 182.914  0.00  0.00    +0.154 HD
BRANCH  18  20
ATOM     20  C   LIG    1       27.155  46.913 181.650  0.00  0.00    +0.033 A 
ATOM     21  C   LIG    1       27.318  47.201 180.291  0.00  0.00    +0.027 A 
ATOM     22  C   LIG    1       28.589  47.151 179.730  0.00  0.00    +0.047 A 
ATOM     23  C   LIG    1       29.685  46.826 180.528  0.00  0.00    +0.120 A 
ATOM     24  C   LIG    1       29.524  46.550 181.889  0.00  0.00    +0.047 A 
ATOM     25  C   LIG    1       28.253  46.596 182.452  0.00  0.00    +0.027 A 
BRANCH  23  26
ATOM     26  O   LIG    1       30.921  46.789 179.913  0.00  0.00    -0.495 OA
ATOM     27  C   LIG    1       31.155  47.017 178.505  0.00  0.00    +0.277 C 
ENDBRANCH  23  26
ENDBRANCH  18  20
ENDBRANCH  16  18
ENDBRANCH   1  16
TORSDOF 7
ENDMDL
MODEL 2
REMARK VINA RESULT:      -6.4     25.814     28.608
REMARK  Name = ZINC000000623135
REMARK                            x       y       z     vdW  Elec       q    Type
REMARK                         _______ _______ _______ _____ _____    ______ ____
ROOT
ATOM      1  N   LIG    1       24.097  42.024 210.226  0.00  0.00    -0.299 N 
ATOM      2  H   LIG    1       24.980  42.357 209.826  0.00  0.00    +0.150 HD
ENDROOT
BRANCH   1   5
ATOM      3  C   LIG    1       24.305  39.747 212.215  0.00  0.00    +0.409 C 
ATOM      4  N   LIG    1       24.898  40.973 212.111  0.00  0.00    -0.212 N 
ATOM      5  C   LIG    1       24.109  42.111 211.653  0.00  0.00    +0.235 C 
ATOM      6  S   LIG    1       25.172  43.591 211.944  0.00  0.00    -0.086 S 
ATOM      7  C   LIG    1       26.516  42.575 212.349  0.00  0.00    +0.006 C 
ATOM      8  C   LIG    1       27.948  42.893 212.640  0.00  0.00    +0.044 C 
ATOM      9  C   LIG    1       28.412  41.523 213.244  0.00  0.00    +0.011 C 
ATOM     10  C   LIG    1       27.420  40.416 212.755  0.00  0.00    +0.052 C 
ATOM     11  C   LIG    1       26.251  41.282 212.405  0.00  0.00    +0.029 C 
ATOM     12  O   LIG    1       24.927  38.728 212.498  0.00  0.00    -0.226 OA
BRANCH   3  13
ATOM     13  O   LIG    1       22.969  39.728 212.004  0.00  0.00    -0.450 OA
BRANCH  13  15
ATOM     14  C   LIG    1       21.136  38.307 211.547  0.00  0.00    +0.048 C 
ATOM     15  C   LIG    1       22.101  38.763 212.641  0.00  0.00    +0.230 C 
ENDBRANCH  13  15
ENDBRANCH   3  13
ENDBRANCH   1   5
BRANCH   1  16
ATOM     16  C   LIG    1       23.000  42.515 209.581  0.00  0.00    +0.136 C 
ATOM     17  S   LIG    1       21.418  42.297 210.086  0.00  0.00    -0.018 S 
BRANCH  16  18
ATOM     18  N   LIG    1       23.304  43.252 208.449  0.00  0.00    -0.297 N 
ATOM     19  H   LIG    1       22.929  42.859 207.576  0.00  0.00    +0.154 HD
BRANCH  18  20
ATOM     20  C   LIG    1       23.829  44.561 208.413  0.00  0.00    +0.033 A 
ATOM     21  C   LIG    1       24.721  44.942 207.406  0.00  0.00    +0.027 A 
ATOM     22  C   LIG    1       25.231  46.235 207.398  0.00  0.00    +0.047 A 
ATOM     23  C   LIG    1       24.841  47.138 208.386  0.00  0.00    +0.120 A 
ATOM     24  C   LIG    1       23.940  46.761 209.386  0.00  0.00    +0.047 A 
ATOM     25  C   LIG    1       23.431  45.467 209.398  0.00  0.00    +0.027 A 
BRANCH  23  26
ATOM     26  O   LIG    1       25.384  48.406 208.328  0.00  0.00    -0.495 OA
ATOM     27  C   LIG    1       25.635  49.256 209.470  0.00  0.00    +0.277 C 
ENDBRANCH  23  26
ENDBRANCH  18  20
ENDBRANCH  16  18
ENDBRANCH   1  16
TORSDOF 7
ENDMDL
MODEL 3
REMARK VINA RESULT:      -6.1     26.909     29.726
REMARK  Name = ZINC000000623135
REMARK                            x       y       z     vdW  Elec       q    Type
REMARK                         _______ _______ _______ _____ _____    ______ ____
ROOT
ATOM      1  N   LIG    1       38.625  18.770 187.964  0.00  0.00    -0.299 N 
ATOM      2  H   LIG    1       39.314  19.026 187.248  0.00  0.00    +0.150 HD
ENDROOT
BRANCH   1   5
ATOM      3  C   LIG    1       37.433  16.014 188.369  0.00  0.00    +0.409 C 
ATOM      4  N   LIG    1       38.702  16.479 188.168  0.00  0.00    -0.212 N 
ATOM      5  C   LIG    1       39.116  17.724 188.805  0.00  0.00    +0.235 C 
ATOM      6  S   LIG    1       40.938  17.829 188.535  0.00  0.00    -0.086 S 
ATOM      7  C   LIG    1       40.881  16.463 187.470  0.00  0.00    +0.006 C 
ATOM      8  C   LIG    1       41.932  15.827 186.615  0.00  0.00    +0.044 C 
ATOM      9  C   LIG    1       41.210  14.484 186.253  0.00  0.00    +0.011 C 
ATOM     10  C   LIG    1       39.672  14.692 186.451  0.00  0.00    +0.052 C 
ATOM     11  C   LIG    1       39.706  15.868 187.374  0.00  0.00    +0.029 C 
ATOM     12  O   LIG    1       36.985  15.030 187.790  0.00  0.00    -0.226 OA
BRANCH   3  13
ATOM     13  O   LIG    1       36.699  16.703 189.274  0.00  0.00    -0.450 OA
BRANCH  13  15
ATOM     14  C   LIG    1       36.937  16.643 191.625  0.00  0.00    +0.048 C 
ATOM     15  C   LIG    1       36.140  16.075 190.451  0.00  0.00    +0.230 C 
ENDBRANCH  13  15
ENDBRANCH   3  13
ENDBRANCH   1   5
BRANCH   1  16
ATOM     16  C   LIG    1       38.067  19.853 188.577  0.00  0.00    +0.136 C 
ATOM     17  S   LIG    1       38.908  21.220 189.054  0.00  0.00    -0.018 S 
BRANCH  16  18
ATOM     18  N   LIG    1       36.699  19.743 188.762  0.00  0.00    -0.297 N 
ATOM     19  H   LIG    1       36.399  19.812 189.743  0.00  0.00    +0.154 HD
BRANCH  18  20
ATOM     20  C   LIG    1       35.707  19.805 187.761  0.00  0.00    +0.033 A 
ATOM     21  C   LIG    1       34.674  18.863 187.724  0.00  0.00    +0.027 A 
ATOM     22  C   LIG    1       33.714  18.940 186.722  0.00  0.00    +0.047 A 
ATOM     23  C   LIG    1       33.785  19.959 185.773  0.00  0.00    +0.120 A 
ATOM     24  C   LIG    1       34.810  20.908 185.817  0.00  0.00    +0.047 A 
ATOM     25  C   LIG    1       35.774  20.831 186.817  0.00  0.00    +0.027 A 
BRANCH  23  26
ATOM     26  O   LIG    1       32.805  19.981 184.801  0.00  0.00    -0.495 OA
ATOM     27  C   LIG    1       31.813  18.949 184.596  0.00  0.00    +0.277 C 
ENDBRANCH  23  26
ENDBRANCH  18  20
ENDBRANCH  16  18
ENDBRANCH   1  16
TORSDOF 7
ENDMDL
MODEL 4
REMARK VINA RESULT:      -6.0     25.747     28.261
REMARK  Name = ZINC000000623135
REMARK                            x       y       z     vdW  Elec       q    Type
REMARK                         _______ _______ _______ _____ _____    ______ ____
ROOT
ATOM      1  N   LIG    1       22.687  41.620 210.535  0.00  0.00    -0.299 N 
ATOM      2  H   LIG    1       21.755  42.037 210.440  0.00  0.00    +0.150 HD
ENDROOT
BRANCH   1   5
ATOM      3  C   LIG    1       22.979  39.054 212.121  0.00  0.00    +0.409 C 
ATOM      4  N   LIG    1       22.165  39.450 211.098  0.00  0.00    -0.212 N 
ATOM      5  C   LIG    1       22.710  40.282 210.032  0.00  0.00    +0.235 C 
ATOM      6  S   LIG    1       21.401  40.332 208.732  0.00  0.00    -0.086 S 
ATOM      7  C   LIG    1       20.286  39.536 209.793  0.00  0.00    +0.006 C 
ATOM      8  C   LIG    1       18.830  39.221 209.648  0.00  0.00    +0.044 C 
ATOM      9  C   LIG    1       18.652  38.213 210.834  0.00  0.00    +0.011 C 
ATOM     10  C   LIG    1       19.815  38.452 211.853  0.00  0.00    +0.052 C 
ATOM     11  C   LIG    1       20.789  39.137 210.947  0.00  0.00    +0.029 C 
ATOM     12  O   LIG    1       22.568  38.437 213.099  0.00  0.00    -0.226 OA
BRANCH   3  13
ATOM     13  O   LIG    1       24.287  39.369 211.977  0.00  0.00    -0.450 OA
BRANCH  13  15
ATOM     14  C   LIG    1       26.456  39.422 212.913  0.00  0.00    +0.048 C 
ATOM     15  C   LIG    1       25.048  40.003 213.030  0.00  0.00    +0.230 C 
ENDBRANCH  13  15
ENDBRANCH   3  13
ENDBRANCH   1   5
BRANCH   1  16
ATOM     16  C   LIG    1       23.689  42.454 210.133  0.00  0.00    +0.136 C 
ATOM     17  S   LIG    1       25.189  42.568 210.868  0.00  0.00    -0.018 S 
BRANCH  16  18
ATOM     18  N   LIG    1       23.368  43.211 209.019  0.00  0.00    -0.297 N 
ATOM     19  H   LIG    1       22.563  42.858 208.487  0.00  0.00    +0.154 HD
BRANCH  18  20
ATOM     20  C   LIG    1       23.853  44.499 208.708  0.00  0.00    +0.033 A 
ATOM     21  C   LIG    1       24.745  44.687 207.648  0.00  0.00    +0.027 A 
ATOM     22  C   LIG    1       25.215  45.965 207.369  0.00  0.00    +0.047 A 
ATOM     23  C   LIG    1       24.785  47.043 208.140  0.00  0.00    +0.120 A 
ATOM     24  C   LIG    1       23.884  46.859 209.192  0.00  0.00    +0.047 A 
ATOM     25  C   LIG    1       23.414  45.580 209.476  0.00  0.00    +0.027 A 
BRANCH  23  26
ATOM     26  O   LIG    1       25.290  48.288 207.816  0.00  0.00    -0.495 OA
ATOM     27  C   LIG    1       25.866  49.221 208.758  0.00  0.00    +0.277 C 
ENDBRANCH  23  26
ENDBRANCH  18  20
ENDBRANCH  16  18
ENDBRANCH   1  16
TORSDOF 7
ENDMDL
MODEL 5
REMARK VINA RESULT:      -5.9     26.353     28.949
REMARK  Name = ZINC000000623135
REMARK                            x       y       z     vdW  Elec       q    Type
REMARK                         _______ _______ _______ _____ _____    ______ ____
ROOT
ATOM      1  N   LIG    1       36.679  18.752 190.837  0.00  0.00    -0.299 N 
ATOM      2  H   LIG    1       35.689  18.535 190.680  0.00  0.00    +0.150 HD
ENDROOT
BRANCH   1   5
ATOM      3  C   LIG    1       37.652  19.045 193.691  0.00  0.00    +0.409 C 
ATOM      4  N   LIG    1       36.943  18.087 193.024  0.00  0.00    -0.212 N 
ATOM      5  C   LIG    1       37.305  17.757 191.650  0.00  0.00    +0.235 C 
ATOM      6  S   LIG    1       36.331  16.246 191.237  0.00  0.00    -0.086 S 
ATOM      7  C   LIG    1       35.440  16.387 192.717  0.00  0.00    +0.006 C 
ATOM      8  C   LIG    1       34.270  15.621 193.248  0.00  0.00    +0.044 C 
ATOM      9  C   LIG    1       34.287  16.101 194.739  0.00  0.00    +0.011 C 
ATOM     10  C   LIG    1       35.068  17.456 194.805  0.00  0.00    +0.052 C 
ATOM     11  C   LIG    1       35.845  17.345 193.532  0.00  0.00    +0.029 C 
ATOM     12  O   LIG    1       37.345  19.442 194.811  0.00  0.00    -0.226 OA
BRANCH   3  13
ATOM     13  O   LIG    1       38.740  19.520 193.042  0.00  0.00    -0.450 OA
BRANCH  13  15
ATOM     14  C   LIG    1       38.505  21.709 192.183  0.00  0.00    +0.048 C 
ATOM     15  C   LIG    1       39.226  20.868 193.236  0.00  0.00    +0.230 C 
ENDBRANCH  13  15
ENDBRANCH   3  13
ENDBRANCH   1   5
BRANCH   1  16
ATOM     16  C   LIG    1       37.330  19.126 189.698  0.00  0.00    +0.136 C 
ATOM     17  S   LIG    1       38.738  18.421 189.127  0.00  0.00    -0.018 S 
BRANCH  16  18
ATOM     18  N   LIG    1       36.704  20.153 189.012  0.00  0.00    -0.297 N 
ATOM     19  H   LIG    1       37.099  21.084 189.195  0.00  0.00    +0.154 HD
BRANCH  18  20
ATOM     20  C   LIG    1       35.795  20.019 187.941  0.00  0.00    +0.033 A 
ATOM     21  C   LIG    1       35.820  20.918 186.871  0.00  0.00    +0.027 A 
ATOM     22  C   LIG    1       34.907  20.770 185.832  0.00  0.00    +0.047 A 
ATOM     23  C   LIG    1       33.987  19.723 185.865  0.00  0.00    +0.120 A 
ATOM     24  C   LIG    1       33.970  18.816 186.929  0.00  0.00    +0.047 A 
ATOM     25  C   LIG    1       34.880  18.965 187.970  0.00  0.00    +0.027 A 
BRANCH  23  26
ATOM     26  O   LIG    1       33.104  19.630 184.807  0.00  0.00    -0.495 OA
ATOM     27  C   LIG    1       31.664  19.598 184.928  0.00  0.00    +0.277 C 
ENDBRANCH  23  26
ENDBRANCH  18  20
ENDBRANCH  16  18
ENDBRANCH   1  16
TORSDOF 7
ENDMDL
MODEL 6
REMARK VINA RESULT:      -5.8     26.376     28.641
REMARK  Name = ZINC000000623135
REMARK                            x       y       z     vdW  Elec       q    Type
REMARK                         _______ _______ _______ _____ _____    ______ ____
ROOT
ATOM      1  N   LIG    1       23.023  41.756 209.604  0.00  0.00    -0.299 N 
ATOM      2  H   LIG    1       22.617  42.008 208.697  0.00  0.00    +0.150 HD
ENDROOT
BRANCH   1   5
ATOM      3  C   LIG    1       25.712  42.788 210.547  0.00  0.00    +0.409 C 
ATOM      4  N   LIG    1       24.608  43.378 210.001  0.00  0.00    -0.212 N 
ATOM      5  C   LIG    1       23.282  42.917 210.397  0.00  0.00    +0.235 C 
ATOM      6  S   LIG    1       22.104  44.146 209.683  0.00  0.00    -0.086 S 
ATOM      7  C   LIG    1       23.391  44.899 208.799  0.00  0.00    +0.006 C 
ATOM      8  C   LIG    1       23.386  45.993 207.779  0.00  0.00    +0.044 C 
ATOM      9  C   LIG    1       24.916  46.327 207.732  0.00  0.00    +0.011 C 
ATOM     10  C   LIG    1       25.700  45.087 208.277  0.00  0.00    +0.052 C 
ATOM     11  C   LIG    1       24.600  44.429 209.048  0.00  0.00    +0.029 C 
ATOM     12  O   LIG    1       26.855  43.054 210.191  0.00  0.00    -0.226 OA
BRANCH   3  13
ATOM     13  O   LIG    1       25.465  41.894 211.534  0.00  0.00    -0.450 OA
BRANCH  13  15
ATOM     14  C   LIG    1       26.917  40.452 212.715  0.00  0.00    +0.048 C 
ATOM     15  C   LIG    1       26.264  41.834 212.737  0.00  0.00    +0.230 C 
ENDBRANCH  13  15
ENDBRANCH   3  13
ENDBRANCH   1   5
BRANCH   1  16
ATOM     16  C   LIG    1       22.376  40.719 210.210  0.00  0.00    +0.136 C 
ATOM     17  S   LIG    1       23.114  39.316 210.748  0.00  0.00    -0.018 S 
BRANCH  16  18
ATOM     18  N   LIG    1       21.017  40.932 210.372  0.00  0.00    -0.297 N 
ATOM     19  H   LIG    1       20.779  41.837 210.796  0.00  0.00    +0.154 HD
BRANCH  18  20
ATOM     20  C   LIG    1       19.973  40.174 209.800  0.00  0.00    +0.033 A 
ATOM     21  C   LIG    1       19.615  40.355 208.460  0.00  0.00    +0.027 A 
ATOM     22  C   LIG    1       18.577  39.603 207.923  0.00  0.00    +0.047 A 
ATOM     23  C   LIG    1       17.912  38.673 208.720  0.00  0.00    +0.120 A 
ATOM     24  C   LIG    1       18.277  38.483 210.057  0.00  0.00    +0.047 A 
ATOM     25  C   LIG    1       19.314  39.237 210.597  0.00  0.00    +0.027 A 
BRANCH  23  26
ATOM     26  O   LIG    1       16.887  37.959 208.132  0.00  0.00    -0.495 OA
ATOM     27  C   LIG    1       16.936  36.552 207.803  0.00  0.00    +0.277 C 
ENDBRANCH  23  26
ENDBRANCH  18  20
ENDBRANCH  16  18
ENDBRANCH   1  16
TORSDOF 7
ENDMDL
MODEL 7
REMARK VINA RESULT:      -5.7     29.885     31.046
REMARK  Name = ZINC000000623135
REMARK                            x       y       z     vdW  Elec       q    Type
REMARK                         _______ _______ _______ _____ _____    ______ ____
ROOT
ATOM      1  N   LIG    1       33.325  16.729 196.852  0.00  0.00    -0.299 N 
ATOM      2  H   LIG    1       33.692  16.832 197.804  0.00  0.00    +0.150 HD
ENDROOT
BRANCH   1   5
ATOM      3  C   LIG    1       30.521  17.569 196.068  0.00  0.00    +0.409 C 
ATOM      4  N   LIG    1       31.533  18.171 196.761  0.00  0.00    -0.212 N 
ATOM      5  C   LIG    1       32.910  17.988 196.317  0.00  0.00    +0.235 C 
ATOM      6  S   LIG    1       33.907  19.181 197.311  0.00  0.00    -0.086 S 
ATOM      7  C   LIG    1       32.528  19.547 198.296  0.00  0.00    +0.006 C 
ATOM      8  C   LIG    1       32.382  20.387 199.525  0.00  0.00    +0.044 C 
ATOM      9  C   LIG    1       30.820  20.495 199.595  0.00  0.00    +0.011 C 
ATOM     10  C   LIG    1       30.215  19.307 198.775  0.00  0.00    +0.052 C 
ATOM     11  C   LIG    1       31.396  18.984 197.916  0.00  0.00    +0.029 C 
ATOM     12  O   LIG    1       29.351  17.597 196.438  0.00  0.00    -0.226 OA
BRANCH   3  13
ATOM     13  O   LIG    1       30.889  16.950 194.922  0.00  0.00    -0.450 OA
BRANCH  13  15
ATOM     14  C   LIG    1       30.688  14.597 195.016  0.00  0.00    +0.048 C 
ATOM     15  C   LIG    1       30.129  15.858 194.357  0.00  0.00    +0.230 C 
ENDBRANCH  13  15
ENDBRANCH   3  13
ENDBRANCH   1   5
BRANCH   1  16
ATOM     16  C   LIG    1       34.110  15.944 196.060  0.00  0.00    +0.136 C 
ATOM     17  S   LIG    1       35.212  14.817 196.625  0.00  0.00    -0.018 S 
BRANCH  16  18
ATOM     18  N   LIG    1       33.903  16.138 194.704  0.00  0.00    -0.297 N 
ATOM     19  H   LIG    1       32.915  16.232 194.437  0.00  0.00    +0.154 HD
BRANCH  18  20
ATOM     20  C   LIG    1       34.882  16.465 193.742  0.00  0.00    +0.033 A 
ATOM     21  C   LIG    1       35.828  17.463 194.001  0.00  0.00    +0.027 A 
ATOM     22  C   LIG    1       36.776  17.773 193.033  0.00  0.00    +0.047 A 
ATOM     23  C   LIG    1       36.780  17.081 191.823  0.00  0.00    +0.120 A 
ATOM     24  C   LIG    1       35.843  16.075 191.568  0.00  0.00    +0.047 A 
ATOM     25  C   LIG    1       34.891  15.765 192.534  0.00  0.00    +0.027 A 
BRANCH  23  26
ATOM     26  O   LIG    1       37.744  17.436 190.899  0.00  0.00    -0.495 OA
ATOM     27  C   LIG    1       37.492  17.730 189.506  0.00  0.00    +0.277 C 
ENDBRANCH  23  26
ENDBRANCH  18  20
ENDBRANCH  16  18
ENDBRANCH   1  16
TORSDOF 7
ENDMDL
MODEL 8
REMARK VINA RESULT:      -5.7     27.213     30.526
REMARK  Name = ZINC000000623135
REMARK                            x       y       z     vdW  Elec       q    Type
REMARK                         _______ _______ _______ _____ _____    ______ ____
ROOT
ATOM      1  N   LIG    1       36.768  19.134 191.092  0.00  0.00    -0.299 N 
ATOM      2  H   LIG    1       36.098  19.906 191.012  0.00  0.00    +0.150 HD
ENDROOT
BRANCH   1   5
ATOM      3  C   LIG    1       37.438  16.886 189.173  0.00  0.00    +0.409 C 
ATOM      4  N   LIG    1       37.201  18.223 189.022  0.00  0.00    -0.212 N 
ATOM      5  C   LIG    1       37.714  19.155 190.020  0.00  0.00    +0.235 C 
ATOM      6  S   LIG    1       37.449  20.834 189.301  0.00  0.00    -0.086 S 
ATOM      7  C   LIG    1       36.525  20.156 188.001  0.00  0.00    +0.006 C 
ATOM      8  C   LIG    1       35.747  20.799 186.896  0.00  0.00    +0.044 C 
ATOM      9  C   LIG    1       35.515  19.556 185.970  0.00  0.00    +0.011 C 
ATOM     10  C   LIG    1       35.679  18.265 186.840  0.00  0.00    +0.052 C 
ATOM     11  C   LIG    1       36.480  18.837 187.967  0.00  0.00    +0.029 C 
ATOM     12  O   LIG    1       36.957  16.036 188.430  0.00  0.00    -0.226 OA
BRANCH   3  13
ATOM     13  O   LIG    1       38.263  16.553 190.192  0.00  0.00    -0.450 OA
BRANCH  13  15
ATOM     14  C   LIG    1       40.423  16.973 191.056  0.00  0.00    +0.048 C 
ATOM     15  C   LIG    1       39.652  16.210 189.979  0.00  0.00    +0.230 C 
ENDBRANCH  13  15
ENDBRANCH   3  13
ENDBRANCH   1   5
BRANCH   1  16
ATOM     16  C   LIG    1       37.261  18.984 192.355  0.00  0.00    +0.136 C 
ATOM     17  S   LIG    1       37.926  20.216 193.273  0.00  0.00    -0.018 S 
BRANCH  16  18
ATOM     18  N   LIG    1       37.146  17.695 192.847  0.00  0.00    -0.297 N 
ATOM     19  H   LIG    1       38.045  17.226 193.017  0.00  0.00    +0.154 HD
BRANCH  18  20
ATOM     20  C   LIG    1       35.978  17.090 193.357  0.00  0.00    +0.033 A 
ATOM     21  C   LIG    1       35.281  16.140 192.602  0.00  0.00    +0.027 A 
ATOM     22  C   LIG    1       34.128  15.566 193.123  0.00  0.00    +0.047 A 
ATOM     23  C   LIG    1       33.685  15.934 194.393  0.00  0.00    +0.120 A 
ATOM     24  C   LIG    1       34.388  16.874 195.153  0.00  0.00    +0.047 A 
ATOM     25  C   LIG    1       35.540  17.452 194.632  0.00  0.00    +0.027 A 
BRANCH  23  26
ATOM     26  O   LIG    1       32.531  15.332 194.855  0.00  0.00    -0.495 OA
ATOM     27  C   LIG    1       31.235  15.424 194.222  0.00  0.00    +0.277 C 
ENDBRANCH  23  26
ENDBRANCH  18  20
ENDBRANCH  16  18
ENDBRANCH   1  16
TORSDOF 7
ENDMDL
MODEL 9
REMARK VINA RESULT:      -5.7     29.887     31.875
REMARK  Name = ZINC000000623135
REMARK                            x       y       z     vdW  Elec       q    Type
REMARK                         _______ _______ _______ _____ _____    ______ ____
ROOT
ATOM      1  N   LIG    1       30.978  16.831 198.491  0.00  0.00    -0.299 N 
ATOM      2  H   LIG    1       31.921  16.431 198.447  0.00  0.00    +0.150 HD
ENDROOT
BRANCH   1   5
ATOM      3  C   LIG    1       29.787  18.885 200.375  0.00  0.00    +0.409 C 
ATOM      4  N   LIG    1       30.984  18.774 199.726  0.00  0.00    -0.212 N 
ATOM      5  C   LIG    1       31.013  18.254 198.364  0.00  0.00    +0.235 C 
ATOM      6  S   LIG    1       32.732  18.550 197.764  0.00  0.00    -0.086 S 
ATOM      7  C   LIG    1       33.227  19.036 199.352  0.00  0.00    +0.006 C 
ATOM      8  C   LIG    1       34.572  19.378 199.911  0.00  0.00    +0.044 C 
ATOM      9  C   LIG    1       34.142  20.035 201.267  0.00  0.00    +0.011 C 
ATOM     10  C   LIG    1       32.700  19.535 201.613  0.00  0.00    +0.052 C 
ATOM     11  C   LIG    1       32.259  19.115 200.247  0.00  0.00    +0.029 C 
ATOM     12  O   LIG    1       29.695  19.220 201.552  0.00  0.00    -0.226 OA
BRANCH   3  13
ATOM     13  O   LIG    1       28.693  18.619 199.624  0.00  0.00    -0.450 OA
BRANCH  13  15
ATOM     14  C   LIG    1       28.111  20.598 198.471  0.00  0.00    +0.048 C 
ATOM     15  C   LIG    1       27.609  19.565 199.480  0.00  0.00    +0.230 C 
ENDBRANCH  13  15
ENDBRANCH   3  13
ENDBRANCH   1   5
BRANCH   1  16
ATOM     16  C   LIG    1       30.076  16.158 197.722  0.00  0.00    +0.136 C 
ATOM     17  S   LIG    1       30.127  14.513 197.409  0.00  0.00    -0.018 S 
BRANCH  16  18
ATOM     18  N   LIG    1       29.066  16.960 197.219  0.00  0.00    -0.297 N 
ATOM     19  H   LIG    1       29.287  17.963 197.212  0.00  0.00    +0.154 HD
BRANCH  18  20
ATOM     20  C   LIG    1       27.924  16.530 196.509  0.00  0.00    +0.033 A 
ATOM     21  C   LIG    1       26.776  16.118 197.192  0.00  0.00    +0.027 A 
ATOM     22  C   LIG    1       25.668  15.691 196.470  0.00  0.00    +0.047 A 
ATOM     23  C   LIG    1       25.710  15.687 195.076  0.00  0.00    +0.120 A 
ATOM     24  C   LIG    1       26.854  16.111 194.392  0.00  0.00    +0.047 A 
ATOM     25  C   LIG    1       27.965  16.536 195.113  0.00  0.00    +0.027 A 
BRANCH  23  26
ATOM     26  O   LIG    1       24.580  15.248 194.414  0.00  0.00    -0.495 OA
ATOM     27  C   LIG    1       24.492  15.009 192.991  0.00  0.00    +0.277 C 
ENDBRANCH  23  26
ENDBRANCH  18  20
ENDBRANCH  16  18
ENDBRANCH   1  16
TORSDOF 7
ENDMDL
