REMARK VINA RESULT:      -8.3      1.947      6.757
REMARK  Name = ZINC000006086009
REMARK                            x       y       z     vdW  Elec       q    Type
REMARK                         _______ _______ _______ _____ _____    ______ ____
ROOT
ATOM      1  N   LIG    1       23.650  44.268 185.120  0.00  0.00    -0.286 NA
ATOM      2  C   LIG    1       24.492  43.244 184.450  0.00  0.00    +0.106 C 
ENDROOT
BRANCH   1   3
ATOM      3  C   LIG    1       22.960  43.685 186.345  0.00  0.00    +0.140 C 
ATOM      4  C   LIG    1       23.899  42.586 186.884  0.00  0.00    +0.034 C 
BRANCH   3   7
ATOM      5  N   LIG    1       22.106  44.228 188.600  0.00  0.00    -0.281 N 
ATOM      6  H   LIG    1       21.836  43.236 188.577  0.00  0.00    +0.155 HD
ATOM      7  C   LIG    1       22.718  44.718 187.474  0.00  0.00    +0.234 C 
ATOM      8  O   LIG    1       22.968  45.906 187.378  0.00  0.00    -0.274 OA
BRANCH   5  10
ATOM      9  C   LIG    1       21.813  44.443 190.973  0.00  0.00    +0.141 A 
ATOM     10  C   LIG    1       21.564  44.951 189.691  0.00  0.00    +0.076 A 
ATOM     11  C   LIG    1       20.822  46.122 189.530  0.00  0.00    +0.027 A 
ATOM     12  C   LIG    1       20.318  46.773 190.654  0.00  0.00    +0.002 A 
ATOM     13  C   LIG    1       20.558  46.265 191.930  0.00  0.00    +0.004 A 
ATOM     14  C   LIG    1       21.307  45.099 192.095  0.00  0.00    +0.047 A 
BRANCH   9  16
ATOM     15  C   LIG    1       23.912  43.214 191.615  0.00  0.00    +0.277 C 
ATOM     16  O   LIG    1       22.567  43.273 191.083  0.00  0.00    -0.493 OA
ENDBRANCH   9  16
ENDBRANCH   5  10
ENDBRANCH   3   7
ENDBRANCH   1   3
BRANCH   1  17
ATOM     17  C   LIG    1       22.689  44.896 184.106  0.00  0.00    +0.181 C 
BRANCH  17  18
ATOM     18  C   LIG    1       23.045  46.362 183.882  0.00  0.00    +0.231 C 
ATOM     19  N   LIG    1       22.457  47.235 184.759  0.00  0.00    -0.284 N 
ATOM     20  H   LIG    1       21.913  46.748 185.488  0.00  0.00    +0.155 HD
ATOM     21  O   LIG    1       23.770  46.734 182.982  0.00  0.00    -0.274 OA
BRANCH  19  22
ATOM     22  C   LIG    1       22.472  48.651 184.806  0.00  0.00    +0.041 A 
ATOM     23  C   LIG    1       21.211  49.325 184.757  0.00  0.00    +0.003 A 
ATOM     24  C   LIG    1       19.965  48.650 184.610  0.00  0.00    +0.010 A 
ATOM     25  C   LIG    1       18.781  49.349 184.579  0.00  0.00    +0.001 A 
ATOM     26  C   LIG    1       18.783  50.753 184.689  0.00  0.00    +0.001 A 
ATOM     27  C   LIG    1       19.968  51.435 184.820  0.00  0.00    +0.008 A 
ATOM     28  C   LIG    1       21.205  50.740 184.851  0.00  0.00    -0.016 A 
ATOM     29  C   LIG    1       22.434  51.440 184.970  0.00  0.00    +0.008 A 
ATOM     30  C   LIG    1       23.630  50.762 185.004  0.00  0.00    +0.002 A 
ATOM     31  C   LIG    1       23.655  49.358 184.927  0.00  0.00    +0.024 A 
ENDBRANCH  19  22
ENDBRANCH  17  18
ENDBRANCH   1  17
TORSDOF 7
