REMARK VINA RESULT:      -7.4     25.616     28.153
REMARK  Name = ZINC000006087399
REMARK                            x       y       z     vdW  Elec       q    Type
REMARK                         _______ _______ _______ _____ _____    ______ ____
ROOT
ATOM      1  C   LIG    1       20.326  40.639 211.446  0.00  0.00    +0.214 C 
ENDROOT
BRANCH   1   7
ATOM      2  C   LIG    1       16.963  36.363 210.878  0.00  0.00    +0.010 C 
ATOM      3  C   LIG    1       17.533  37.083 209.635  0.00  0.00    +0.018 C 
ATOM      4  C   LIG    1       17.603  38.636 209.819  0.00  0.00    +0.115 C 
ATOM      5  C   LIG    1       18.427  39.067 211.034  0.00  0.00    +0.247 C 
ATOM      6  O   LIG    1       18.246  38.871 212.224  0.00  0.00    -0.273 OA
ATOM      7  N   LIG    1       19.465  39.823 210.586  0.00  0.00    -0.215 N 
ATOM      8  C   LIG    1       19.411  39.952 209.228  0.00  0.00    +0.310 C 
ATOM      9  O   LIG    1       20.158  40.642 208.556  0.00  0.00    -0.252 OA
ATOM     10  N   LIG    1       18.399  39.211 208.739  0.00  0.00    -0.285 N 
ATOM     11  H   LIG    1       18.027  39.423 207.807  0.00  0.00    +0.151 HD
ATOM     12  C   LIG    1       16.207  39.313 209.851  0.00  0.00    +0.035 C 
ATOM     13  C   LIG    1       15.413  38.935 208.583  0.00  0.00    +0.003 C 
ATOM     14  C   LIG    1       15.295  37.415 208.415  0.00  0.00    +0.000 C 
ATOM     15  C   LIG    1       16.683  36.755 208.387  0.00  0.00    +0.006 C 
ENDBRANCH   1   7
BRANCH   1  16
ATOM     16  C   LIG    1       21.565  39.825 211.828  0.00  0.00    +0.238 C 
ATOM     17  N   LIG    1       22.806  40.337 211.497  0.00  0.00    -0.267 N 
ATOM     18  O   LIG    1       21.512  38.749 212.412  0.00  0.00    -0.274 OA
BRANCH  17  19
ATOM     19  C   LIG    1       22.946  41.579 210.838  0.00  0.00    +0.010 C 
ATOM     20  C   LIG    1       23.258  41.493 209.355  0.00  0.00    +0.051 C 
ATOM     21  C   LIG    1       23.821  42.862 208.915  0.00  0.00    +0.006 C 
ATOM     22  C   LIG    1       22.824  43.949 209.365  0.00  0.00    +0.004 C 
ATOM     23  C   LIG    1       22.930  44.097 210.900  0.00  0.00    +0.029 C 
ATOM     24  C   LIG    1       22.778  42.723 211.525  0.00  0.00    -0.008 C 
ENDBRANCH  17  19
BRANCH  17  25
ATOM     25  C   LIG    1       24.015  39.524 211.706  0.00  0.00    +0.187 C 
BRANCH  25  26
ATOM     26  C   LIG    1       24.871  40.304 212.684  0.00  0.00    +0.122 A 
ATOM     27  O   LIG    1       24.383  40.646 213.910  0.00  0.00    -0.466 OA
ATOM     28  C   LIG    1       25.355  41.343 214.552  0.00  0.00    +0.195 A 
ATOM     29  C   LIG    1       26.441  41.443 213.754  0.00  0.00    +0.041 A 
ATOM     30  C   LIG    1       26.132  40.780 212.562  0.00  0.00    +0.046 A 
ENDBRANCH  25  26
ENDBRANCH  17  25
ENDBRANCH   1  16
TORSDOF 5
