REMARK VINA RESULT:      -7.9      0.000      0.000
REMARK  Name = ZINC000006087320
REMARK                            x       y       z     vdW  Elec       q    Type
REMARK                         _______ _______ _______ _____ _____    ______ ____
ROOT
ATOM      1  C   LIG    1       16.764  38.451 208.328  0.00  0.00    +0.222 C 
ENDROOT
BRANCH   1   2
ATOM      2  N   LIG    1       18.019  38.747 209.060  0.00  0.00    -0.290 N 
ATOM      3  C   LIG    1       18.983  39.569 208.503  0.00  0.00    +0.262 A 
ATOM      4  O   LIG    1       18.759  40.025 207.378  0.00  0.00    -0.267 OA
ATOM      5  C   LIG    1       20.187  39.822 209.263  0.00  0.00    +0.068 A 
ATOM      6  C   LIG    1       21.202  40.666 208.786  0.00  0.00    +0.035 A 
ATOM      7  C   LIG    1       22.345  40.878 209.549  0.00  0.00    +0.043 A 
ATOM      8 CL   LIG    1       23.595  41.917 208.957  0.00  0.00    -0.083 Cl
ATOM      9  C   LIG    1       22.491  40.255 210.791  0.00  0.00    +0.042 A 
ATOM     10  C   LIG    1       21.489  39.419 211.267  0.00  0.00    +0.068 A 
ATOM     11 CL   LIG    1       21.706  38.661 212.815  0.00  0.00    -0.081 Cl
ATOM     12  C   LIG    1       20.322  39.190 210.506  0.00  0.00    +0.096 A 
ATOM     13  N   LIG    1       19.296  38.341 210.965  0.00  0.00    -0.235 NA
ATOM     14  C   LIG    1       18.234  38.137 210.283  0.00  0.00    +0.203 A 
ENDBRANCH   1   2
BRANCH   1  17
ATOM     15  N   LIG    1       15.598  36.305 208.656  0.00  0.00    -0.284 N 
ATOM     16  H   LIG    1       14.922  36.931 209.130  0.00  0.00    +0.155 HD
ATOM     17  C   LIG    1       16.692  36.946 208.129  0.00  0.00    +0.237 C 
ATOM     18  O   LIG    1       17.552  36.349 207.517  0.00  0.00    -0.274 OA
BRANCH  15  20
ATOM     19  C   LIG    1       15.080  34.313 209.930  0.00  0.00    -0.026 A 
ATOM     20  C   LIG    1       15.273  34.923 208.677  0.00  0.00    +0.037 A 
ATOM     21  C   LIG    1       15.123  34.189 207.496  0.00  0.00    +0.023 A 
ATOM     22  C   LIG    1       14.805  32.838 207.560  0.00  0.00    +0.002 A 
ATOM     23  C   LIG    1       14.629  32.220 208.795  0.00  0.00    +0.000 A 
ATOM     24  C   LIG    1       14.765  32.956 209.969  0.00  0.00    +0.005 A 
BRANCH  19  26
ATOM     25  C   LIG    1       16.704  35.051 211.615  0.00  0.00    +0.009 C 
ATOM     26  C   LIG    1       15.214  35.069 211.247  0.00  0.00    +0.033 C 
ENDBRANCH  19  26
ENDBRANCH  15  20
ENDBRANCH   1  17
TORSDOF 4
