REMARK VINA RESULT:      -8.7      3.585      6.159
REMARK  Name = ZINC000006086009
REMARK                            x       y       z     vdW  Elec       q    Type
REMARK                         _______ _______ _______ _____ _____    ______ ____
ROOT
ATOM      1  N   LIG    1       24.010  43.650 185.445  0.00  0.00    -0.286 NA
ATOM      2  C   LIG    1       22.921  44.661 185.429  0.00  0.00    +0.106 C 
ENDROOT
BRANCH   1   3
ATOM      3  C   LIG    1       24.386  43.237 184.029  0.00  0.00    +0.140 C 
ATOM      4  C   LIG    1       23.371  43.929 183.096  0.00  0.00    +0.034 C 
BRANCH   3   7
ATOM      5  N   LIG    1       25.877  44.790 182.816  0.00  0.00    -0.281 N 
ATOM      6  H   LIG    1       24.979  45.210 182.547  0.00  0.00    +0.155 HD
ATOM      7  C   LIG    1       25.812  43.673 183.611  0.00  0.00    +0.234 C 
ATOM      8  O   LIG    1       26.824  43.051 183.881  0.00  0.00    -0.274 OA
BRANCH   5  10
ATOM      9  C   LIG    1       26.976  45.147 180.712  0.00  0.00    +0.141 A 
ATOM     10  C   LIG    1       26.992  45.299 182.105  0.00  0.00    +0.076 A 
ATOM     11  C   LIG    1       28.064  45.936 182.731  0.00  0.00    +0.027 A 
ATOM     12  C   LIG    1       29.126  46.406 181.961  0.00  0.00    +0.002 A 
ATOM     13  C   LIG    1       29.116  46.247 180.576  0.00  0.00    +0.004 A 
ATOM     14  C   LIG    1       28.041  45.619 179.945  0.00  0.00    +0.047 A 
BRANCH   9  16
ATOM     15  C   LIG    1       25.957  43.299 179.342  0.00  0.00    +0.277 C 
ATOM     16  O   LIG    1       25.877  44.510 180.131  0.00  0.00    -0.493 OA
ENDBRANCH   9  16
ENDBRANCH   5  10
ENDBRANCH   3   7
ENDBRANCH   1   3
BRANCH   1  17
ATOM     17  C   LIG    1       23.621  42.479 186.352  0.00  0.00    +0.181 C 
BRANCH  17  18
ATOM     18  C   LIG    1       23.859  42.844 187.813  0.00  0.00    +0.231 C 
ATOM     19  N   LIG    1       22.725  43.142 188.523  0.00  0.00    -0.284 N 
ATOM     20  H   LIG    1       21.869  43.001 187.965  0.00  0.00    +0.155 HD
ATOM     21  O   LIG    1       24.967  42.895 188.307  0.00  0.00    -0.274 OA
BRANCH  19  22
ATOM     22  C   LIG    1       22.560  43.608 189.850  0.00  0.00    +0.041 A 
ATOM     23  C   LIG    1       21.757  44.777 190.042  0.00  0.00    +0.003 A 
ATOM     24  C   LIG    1       21.174  45.513 188.971  0.00  0.00    +0.010 A 
ATOM     25  C   LIG    1       20.402  46.625 189.216  0.00  0.00    +0.001 A 
ATOM     26  C   LIG    1       20.180  47.059 190.538  0.00  0.00    +0.001 A 
ATOM     27  C   LIG    1       20.738  46.378 191.591  0.00  0.00    +0.008 A 
ATOM     28  C   LIG    1       21.542  45.229 191.369  0.00  0.00    -0.016 A 
ATOM     29  C   LIG    1       22.135  44.531 192.453  0.00  0.00    +0.008 A 
ATOM     30  C   LIG    1       22.909  43.416 192.233  0.00  0.00    +0.002 A 
ATOM     31  C   LIG    1       23.122  42.944 190.926  0.00  0.00    +0.024 A 
ENDBRANCH  19  22
ENDBRANCH  17  18
ENDBRANCH   1  17
TORSDOF 7
