REMARK VINA RESULT:      -6.4      4.300      8.402
REMARK  Name = ZINC000000623134
REMARK                            x       y       z     vdW  Elec       q    Type
REMARK                         _______ _______ _______ _____ _____    ______ ____
ROOT
ATOM      1  N   LIG    1       20.418  47.361 183.917  0.00  0.00    -0.299 N 
ATOM      2  H   LIG    1       19.665  47.839 183.412  0.00  0.00    +0.150 HD
ENDROOT
BRANCH   1   5
ATOM      3  C   LIG    1       20.911  47.127 186.893  0.00  0.00    +0.409 C 
ATOM      4  N   LIG    1       20.452  48.141 186.104  0.00  0.00    -0.212 N 
ATOM      5  C   LIG    1       21.060  48.305 184.788  0.00  0.00    +0.235 C 
ATOM      6  S   LIG    1       20.431  49.914 184.148  0.00  0.00    -0.086 S 
ATOM      7  C   LIG    1       19.363  50.065 185.505  0.00  0.00    +0.006 C 
ATOM      8  C   LIG    1       18.356  51.114 185.856  0.00  0.00    +0.044 C 
ATOM      9  C   LIG    1       17.603  50.385 187.018  0.00  0.00    +0.011 C 
ATOM     10  C   LIG    1       18.557  49.288 187.596  0.00  0.00    +0.052 C 
ATOM     11  C   LIG    1       19.465  49.116 186.419  0.00  0.00    +0.029 C 
ATOM     12  O   LIG    1       21.817  46.377 186.533  0.00  0.00    -0.226 OA
BRANCH   3  13
ATOM     13  O   LIG    1       20.329  47.000 188.101  0.00  0.00    -0.450 OA
BRANCH  13  15
ATOM     14  C   LIG    1       20.411  46.704 190.431  0.00  0.00    +0.048 C 
ATOM     15  C   LIG    1       20.902  46.136 189.102  0.00  0.00    +0.230 C 
ENDBRANCH  13  15
ENDBRANCH   3  13
ENDBRANCH   1   5
BRANCH   1  16
ATOM     16  C   LIG    1       21.222  46.651 183.071  0.00  0.00    +0.136 C 
ATOM     17  S   LIG    1       21.839  47.326 181.668  0.00  0.00    -0.018 S 
BRANCH  16  18
ATOM     18  N   LIG    1       21.390  45.342 183.495  0.00  0.00    -0.297 N 
ATOM     19  H   LIG    1       20.526  44.885 183.843  0.00  0.00    +0.154 HD
BRANCH  18  20
ATOM     20  C   LIG    1       22.492  44.508 183.229  0.00  0.00    +0.033 A 
ATOM     21  C   LIG    1       22.421  43.684 182.105  0.00  0.00    +0.027 A 
ATOM     22  C   LIG    1       23.474  42.823 181.814  0.00  0.00    +0.047 A 
ATOM     23  C   LIG    1       24.589  42.791 182.658  0.00  0.00    +0.120 A 
ATOM     24  C   LIG    1       24.655  43.607 183.785  0.00  0.00    +0.047 A 
ATOM     25  C   LIG    1       23.603  44.467 184.078  0.00  0.00    +0.027 A 
BRANCH  23  26
ATOM     26  O   LIG    1       25.664  41.957 182.420  0.00  0.00    -0.495 OA
ATOM     27  C   LIG    1       27.000  42.167 182.929  0.00  0.00    +0.277 C 
ENDBRANCH  23  26
ENDBRANCH  18  20
ENDBRANCH  16  18
ENDBRANCH   1  16
TORSDOF 7
