REMARK VINA RESULT:      -7.6      1.811      2.606
REMARK  Name = ZINC000000538650
REMARK                            x       y       z     vdW  Elec       q    Type
REMARK                         _______ _______ _______ _____ _____    ______ ____
ROOT
ATOM      1  C   LIG    1       18.128  38.954 208.975  0.00  0.00    +0.076 A 
ATOM      2  N   LIG    1       18.934  38.851 210.126  0.00  0.00    -0.213 N 
ATOM      3  N   LIG    1       18.679  38.128 211.258  0.00  0.00    -0.172 NA
ATOM      4  C   LIG    1       19.714  38.339 212.026  0.00  0.00    +0.148 A 
ATOM      5  C   LIG    1       20.648  39.193 211.443  0.00  0.00    +0.087 A 
ATOM      6  C   LIG    1       20.141  39.517 210.207  0.00  0.00    +0.167 A 
ATOM      7  N   LIG    1       20.621  40.289 209.157  0.00  0.00    -0.235 NA
ATOM      8  C   LIG    1       19.898  40.393 208.086  0.00  0.00    +0.115 A 
ATOM      9  C   LIG    1       18.640  39.740 207.965  0.00  0.00    +0.048 A 
ENDROOT
BRANCH   1  12
ATOM     10  C   LIG    1       15.530  36.224 208.892  0.00  0.00    +0.037 A 
ATOM     11  C   LIG    1       16.768  36.859 208.982  0.00  0.00    +0.033 A 
ATOM     12  C   LIG    1       16.848  38.256 208.930  0.00  0.00    +0.002 A 
ATOM     13  C   LIG    1       15.662  38.995 208.797  0.00  0.00    +0.010 A 
ATOM     14  C   LIG    1       14.428  38.355 208.715  0.00  0.00    +0.002 A 
ATOM     15  C   LIG    1       14.355  36.968 208.759  0.00  0.00    +0.023 A 
BRANCH  10  18
ATOM     16  C   LIG    1       15.468  32.544 207.813  0.00  0.00    +0.109 C 
ATOM     17  C   LIG    1       15.584  34.049 207.748  0.00  0.00    +0.216 C 
ATOM     18  N   LIG    1       15.473  34.801 208.914  0.00  0.00    -0.275 N 
ATOM     19  C   LIG    1       15.238  34.155 210.219  0.00  0.00    +0.138 C 
ATOM     20  O   LIG    1       15.771  34.599 206.683  0.00  0.00    -0.276 OA
ENDBRANCH  10  18
ENDBRANCH   1  12
BRANCH   5  21
ATOM     21  C   LIG    1       21.895  39.581 212.060  0.00  0.00    +0.205 C 
ATOM     22  O   LIG    1       22.367  38.831 212.915  0.00  0.00    -0.286 OA
BRANCH  21  23
ATOM     23  C   LIG    1       22.598  40.820 211.759  0.00  0.00    +0.060 A 
ATOM     24  S   LIG    1       21.942  42.357 212.244  0.00  0.00    -0.093 S 
ATOM     25  C   LIG    1       23.265  43.200 211.533  0.00  0.00    +0.046 A 
ATOM     26  C   LIG    1       24.158  42.345 210.949  0.00  0.00    +0.008 A 
ATOM     27  C   LIG    1       23.783  41.002 211.072  0.00  0.00    +0.019 A 
ENDBRANCH  21  23
ENDBRANCH   5  21
TORSDOF 4
