REMARK VINA RESULT:      -7.5      4.520      6.541
REMARK  Name = ZINC000009527204
REMARK                            x       y       z     vdW  Elec       q    Type
REMARK                         _______ _______ _______ _____ _____    ______ ____
ROOT
ATOM      1  O   LIG    1       24.553  43.834 179.535  0.00  0.00    -0.267 OA
ATOM      2  C   LIG    1       23.712  43.720 180.426  0.00  0.00    +0.282 C 
ATOM      3  N   LIG    1       23.870  44.547 181.534  0.00  0.00    -0.292 N 
ATOM      4  C   LIG    1       22.713  45.136 182.257  0.00  0.00    +0.127 C 
ATOM      5  C   LIG    1       22.515  46.567 181.693  0.00  0.00    +0.127 C 
ATOM      6  N   LIG    1       23.787  47.302 181.909  0.00  0.00    -0.294 N 
ATOM      7  C   LIG    1       24.004  48.006 183.089  0.00  0.00    +0.253 C 
ATOM      8  O   LIG    1       25.128  47.935 183.581  0.00  0.00    -0.269 OA
ATOM      9  C   LIG    1       24.940  46.706 181.178  0.00  0.00    +0.127 C 
ATOM     10  C   LIG    1       25.145  45.284 181.750  0.00  0.00    +0.127 C 
ENDROOT
BRANCH   7  11
ATOM     11  C   LIG    1       22.923  48.762 183.700  0.00  0.00    +0.075 A 
ATOM     12  S   LIG    1       21.816  48.006 184.804  0.00  0.00    -0.083 S 
ATOM     13  C   LIG    1       20.949  49.486 185.015  0.00  0.00    +0.024 A 
ATOM     14  C   LIG    1       19.770  49.682 185.823  0.00  0.00    -0.001 A 
ATOM     15  C   LIG    1       19.067  50.843 185.650  0.00  0.00    -0.002 A 
ATOM     16  C   LIG    1       19.412  51.891 184.601  0.00  0.00    +0.048 C 
ATOM     17  C   LIG    1       20.955  51.926 184.397  0.00  0.00    +0.041 C 
ATOM     18  S   LIG    1       17.694  50.929 186.694  0.00  0.00    -0.101 S 
ATOM     19  C   LIG    1       18.076  49.381 187.364  0.00  0.00    +0.046 A 
ATOM     20  C   LIG    1       19.199  48.845 186.804  0.00  0.00    +0.017 A 
ATOM     21  C   LIG    1       21.508  50.507 184.285  0.00  0.00    -0.032 A 
ATOM     22  C   LIG    1       22.621  50.100 183.545  0.00  0.00    +0.025 A 
ENDBRANCH   7  11
BRANCH   2  23
ATOM     23  C   LIG    1       22.601  42.774 180.311  0.00  0.00    +0.189 A 
ATOM     24  O   LIG    1       22.583  41.536 180.921  0.00  0.00    -0.458 OA
ATOM     25  C   LIG    1       21.429  40.924 180.582  0.00  0.00    +0.196 A 
ATOM     26  C   LIG    1       20.708  41.732 179.770  0.00  0.00    +0.042 A 
ATOM     27  C   LIG    1       21.448  42.901 179.594  0.00  0.00    +0.054 A 
ENDBRANCH   2  23
TORSDOF 2
