REMARK VINA RESULT:      -7.5     29.008     32.528
REMARK  Name = ZINC000049420917
REMARK                            x       y       z     vdW  Elec       q    Type
REMARK                         _______ _______ _______ _____ _____    ______ ____
ROOT
ATOM      1  N   LIG    1       24.885  46.290 182.743  0.00  0.00    -0.205 N 
ATOM      2  C   LIG    1       26.264  46.264 182.419  0.00  0.00    +0.160 A 
ATOM      3  N   LIG    1       26.961  47.398 182.585  0.00  0.00    -0.238 NA
ATOM      4  C   LIG    1       28.258  47.413 182.282  0.00  0.00    +0.113 A 
ATOM      5  C   LIG    1       28.915  46.281 181.806  0.00  0.00    +0.022 A 
ATOM      6  C   LIG    1       28.206  45.097 181.636  0.00  0.00    +0.034 A 
ATOM      7  C   LIG    1       26.851  45.100 181.943  0.00  0.00    +0.149 A 
ATOM      8  S   LIG    1       25.782  43.702 181.870  0.00  0.00    +0.082 S 
ATOM      9  O   LIG    1       25.015  43.759 180.684  0.00  0.00    -0.150 OA
ATOM     10  O   LIG    1       26.542  42.524 182.081  0.00  0.00    -0.150 OA
ATOM     11  N   LIG    1       24.790  43.940 183.152  0.00  0.00    -0.150 N 
ATOM     12  C   LIG    1       24.150  45.137 183.060  0.00  0.00    +0.334 C 
ATOM     13  O   LIG    1       22.942  45.205 183.268  0.00  0.00    -0.250 OA
ENDROOT
BRANCH   1  18
ATOM     14  C   LIG    1       22.101  51.275 182.604  0.00  0.00    +0.044 C 
ATOM     15  C   LIG    1       22.847  49.958 182.639  0.00  0.00    -0.050 A 
ATOM     16  C   LIG    1       23.210  49.391 183.862  0.00  0.00    +0.005 A 
ATOM     17  C   LIG    1       23.886  48.176 183.902  0.00  0.00    +0.024 A 
ATOM     18  C   LIG    1       24.192  47.530 182.706  0.00  0.00    +0.044 A 
ATOM     19  C   LIG    1       23.832  48.080 181.477  0.00  0.00    +0.024 A 
ATOM     20  C   LIG    1       23.157  49.296 181.449  0.00  0.00    +0.005 A 
ENDBRANCH   1  18
BRANCH  11  21
ATOM     21  C   LIG    1       24.034  42.751 183.540  0.00  0.00    +0.171 C 
BRANCH  21  22
ATOM     22  C   LIG    1       24.354  42.590 185.013  0.00  0.00    -0.028 A 
ATOM     23  C   LIG    1       23.379  42.880 185.974  0.00  0.00    +0.008 A 
ATOM     24  C   LIG    1       23.664  42.728 187.329  0.00  0.00    +0.038 A 
ATOM     25  C   LIG    1       24.925  42.282 187.700  0.00  0.00    +0.123 A 
ATOM     26  F   LIG    1       25.205  42.134 189.017  0.00  0.00    -0.205 F 
ATOM     27  C   LIG    1       25.907  41.981 186.767  0.00  0.00    +0.038 A 
ATOM     28  C   LIG    1       25.615  42.136 185.415  0.00  0.00    +0.008 A 
ENDBRANCH  21  22
ENDBRANCH  11  21
TORSDOF 3
