REMARK VINA RESULT:      -6.9      0.000      0.000
REMARK  Name = ZINC000000623135
REMARK                            x       y       z     vdW  Elec       q    Type
REMARK                         _______ _______ _______ _____ _____    ______ ____
ROOT
ATOM      1  N   LIG    1       25.112  44.988 183.178  0.00  0.00    -0.299 N 
ATOM      2  H   LIG    1       25.066  45.367 184.130  0.00  0.00    +0.150 HD
ENDROOT
BRANCH   1   5
ATOM      3  C   LIG    1       26.133  42.215 182.509  0.00  0.00    +0.409 C 
ATOM      4  N   LIG    1       25.259  42.705 183.436  0.00  0.00    -0.212 N 
ATOM      5  C   LIG    1       24.350  43.784 183.062  0.00  0.00    +0.235 C 
ATOM      6  S   LIG    1       23.165  43.935 184.468  0.00  0.00    -0.086 S 
ATOM      7  C   LIG    1       24.108  42.829 185.412  0.00  0.00    +0.006 C 
ATOM      8  C   LIG    1       23.987  42.385 186.836  0.00  0.00    +0.044 C 
ATOM      9  C   LIG    1       24.956  41.155 186.819  0.00  0.00    +0.011 C 
ATOM     10  C   LIG    1       25.934  41.322 185.608  0.00  0.00    +0.052 C 
ATOM     11  C   LIG    1       25.128  42.274 184.782  0.00  0.00    +0.029 C 
ATOM     12  O   LIG    1       26.989  41.379 182.778  0.00  0.00    -0.226 OA
BRANCH   3  13
ATOM     13  O   LIG    1       25.979  42.697 181.254  0.00  0.00    -0.450 OA
BRANCH  13  15
ATOM     14  C   LIG    1       26.406  43.880 179.253  0.00  0.00    +0.048 C 
ATOM     15  C   LIG    1       27.023  43.435 180.579  0.00  0.00    +0.230 C 
ENDBRANCH  13  15
ENDBRANCH   3  13
ENDBRANCH   1   5
BRANCH   1  16
ATOM     16  C   LIG    1       24.926  45.938 182.217  0.00  0.00    +0.136 C 
ATOM     17  S   LIG    1       23.671  45.942 181.108  0.00  0.00    -0.018 S 
BRANCH  16  18
ATOM     18  N   LIG    1       25.874  46.947 182.241  0.00  0.00    -0.297 N 
ATOM     19  H   LIG    1       25.674  47.697 182.914  0.00  0.00    +0.154 HD
BRANCH  18  20
ATOM     20  C   LIG    1       27.155  46.913 181.650  0.00  0.00    +0.033 A 
ATOM     21  C   LIG    1       27.318  47.201 180.291  0.00  0.00    +0.027 A 
ATOM     22  C   LIG    1       28.589  47.151 179.730  0.00  0.00    +0.047 A 
ATOM     23  C   LIG    1       29.685  46.826 180.528  0.00  0.00    +0.120 A 
ATOM     24  C   LIG    1       29.524  46.550 181.889  0.00  0.00    +0.047 A 
ATOM     25  C   LIG    1       28.253  46.596 182.452  0.00  0.00    +0.027 A 
BRANCH  23  26
ATOM     26  O   LIG    1       30.921  46.789 179.913  0.00  0.00    -0.495 OA
ATOM     27  C   LIG    1       31.155  47.017 178.505  0.00  0.00    +0.277 C 
ENDBRANCH  23  26
ENDBRANCH  18  20
ENDBRANCH  16  18
ENDBRANCH   1  16
TORSDOF 7
