REMARK VINA RESULT:      -7.1     26.821     29.035
REMARK  Name = ZINC000000622958
REMARK                            x       y       z     vdW  Elec       q    Type
REMARK                         _______ _______ _______ _____ _____    ______ ____
ROOT
ATOM      1  C   LIG    1       38.092  20.151 189.035  0.00  0.00    +0.271 C 
ATOM      2  N   LIG    1       38.594  18.928 189.609  0.00  0.00    -0.157 N 
ATOM      3  C   LIG    1       38.501  18.912 190.920  0.00  0.00    +0.250 C 
ATOM      4  C   LIG    1       38.950  17.769 191.818  0.00  0.00    +0.124 C 
ATOM      5  C   LIG    1       37.679  17.093 192.384  0.00  0.00    +0.012 C 
ATOM      6  C   LIG    1       37.116  17.934 193.546  0.00  0.00    +0.004 C 
ATOM      7  C   LIG    1       36.516  19.304 193.167  0.00  0.00    +0.045 C 
ATOM      8  C   LIG    1       37.637  20.283 192.767  0.00  0.00    +0.236 C 
ATOM      9  N   LIG    1       37.938  20.011 191.353  0.00  0.00    -0.258 N 
ATOM     10  C   LIG    1       37.510  20.908 190.256  0.00  0.00    +0.323 C 
ENDROOT
BRANCH   1  11
ATOM     11  C   LIG    1       37.023  19.872 187.972  0.00  0.00    +0.034 A 
ATOM     12  C   LIG    1       35.704  19.595 188.373  0.00  0.00    +0.060 A 
ATOM     13  C   LIG    1       34.750  19.338 187.402  0.00  0.00    +0.167 A 
ATOM     14  O   LIG    1       33.447  19.048 187.604  0.00  0.00    -0.453 OA
ATOM     15  C   LIG    1       32.858  18.857 186.253  0.00  0.00    +0.466 C 
ATOM     16  O   LIG    1       33.979  19.076 185.309  0.00  0.00    -0.453 OA
ATOM     17  C   LIG    1       35.061  19.352 186.068  0.00  0.00    +0.166 A 
ATOM     18  C   LIG    1       36.349  19.625 185.634  0.00  0.00    +0.050 A 
ATOM     19  C   LIG    1       37.331  19.885 186.594  0.00  0.00    +0.014 A 
ENDBRANCH   1  11
BRANCH   2  20
ATOM     20  C   LIG    1       39.069  17.849 188.818  0.00  0.00    +0.124 A 
ATOM     21  C   LIG    1       38.208  16.800 188.496  0.00  0.00    +0.050 A 
ATOM     22  C   LIG    1       38.681  15.753 187.709  0.00  0.00    +0.024 A 
ATOM     23  C   LIG    1       40.002  15.764 187.252  0.00  0.00    +0.041 A 
ATOM     24 CL   LIG    1       40.584  14.462 186.273  0.00  0.00    -0.084 Cl
ATOM     25  C   LIG    1       40.856  16.822 187.581  0.00  0.00    +0.024 A 
ATOM     26  C   LIG    1       40.390  17.870 188.368  0.00  0.00    +0.050 A 
ENDBRANCH   2  20
BRANCH   1  27
ATOM     27  O   LIG    1       39.225  20.838 188.520  0.00  0.00    -0.347 OA
ATOM     28  H   LIG    1       39.684  21.252 189.266  0.00  0.00    +0.215 HD
ENDBRANCH   1  27
TORSDOF 3
