REMARK VINA RESULT:      -7.8      1.158      1.768
REMARK  Name = ZINC000006083858
REMARK                            x       y       z     vdW  Elec       q    Type
REMARK                         _______ _______ _______ _____ _____    ______ ____
ROOT
ATOM      1  C   LIG    1       22.964  44.799 184.618  0.00  0.00    +0.257 A 
ATOM      2  C   LIG    1       23.952  44.594 183.568  0.00  0.00    +0.185 A 
ATOM      3  N   LIG    1       24.865  43.657 183.641  0.00  0.00    -0.225 NA
ATOM      4  C   LIG    1       24.822  42.863 184.763  0.00  0.00    +0.092 A 
ATOM      5  C   LIG    1       25.767  41.828 184.911  0.00  0.00    +0.030 A 
ATOM      6  C   LIG    1       25.751  41.013 186.026  0.00  0.00    +0.002 A 
ATOM      7  C   LIG    1       24.786  41.205 187.030  0.00  0.00    +0.002 A 
ATOM      8  C   LIG    1       23.849  42.211 186.908  0.00  0.00    +0.030 A 
ATOM      9  C   LIG    1       23.850  43.059 185.784  0.00  0.00    +0.093 A 
ATOM     10  N   LIG    1       22.908  44.068 185.700  0.00  0.00    -0.208 NA
ENDROOT
BRANCH   2  11
ATOM     11  N   LIG    1       23.992  45.436 182.447  0.00  0.00    -0.311 N 
ATOM     12  C   LIG    1       25.009  46.499 182.600  0.00  0.00    +0.131 C 
BRANCH  11  13
ATOM     13  C   LIG    1       23.852  44.799 181.099  0.00  0.00    +0.075 C 
ATOM     14  C   LIG    1       23.849  45.861 179.961  0.00  0.00    +0.022 C 
ATOM     15  C   LIG    1       22.643  46.814 180.104  0.00  0.00    +0.002 C 
ATOM     16  C   LIG    1       21.320  46.042 180.065  0.00  0.00    +0.000 C 
ATOM     17  C   LIG    1       21.312  44.975 181.165  0.00  0.00    +0.002 C 
ATOM     18  C   LIG    1       22.509  44.016 181.009  0.00  0.00    +0.022 C 
ENDBRANCH  11  13
ENDBRANCH   2  11
BRANCH   1  19
ATOM     19  O   LIG    1       22.046  45.820 184.487  0.00  0.00    -0.465 OA
BRANCH  19  20
ATOM     20  C   LIG    1       21.939  46.974 185.389  0.00  0.00    +0.326 C 
BRANCH  20  23
ATOM     21  N   LIG    1       21.751  49.389 185.154  0.00  0.00    -0.310 N 
ATOM     22  H   LIG    1       21.742  49.357 186.165  0.00  0.00    +0.149 HD
ATOM     23  C   LIG    1       21.875  48.221 184.521  0.00  0.00    +0.251 C 
ATOM     24  O   LIG    1       21.956  48.166 183.299  0.00  0.00    -0.272 OA
BRANCH  21  25
ATOM     25  C   LIG    1       21.716  50.695 184.527  0.00  0.00    +0.073 C 
ATOM     26  C   LIG    1       22.970  51.452 184.964  0.00  0.00    +0.028 C 
BRANCH  25  28
ATOM     27  C   LIG    1       19.989  52.393 183.753  0.00  0.00    +0.009 C 
ATOM     28  C   LIG    1       20.401  51.433 184.883  0.00  0.00    +0.003 C 
ATOM     29  C   LIG    1       19.209  50.508 185.200  0.00  0.00    +0.009 C 
ENDBRANCH  25  28
ENDBRANCH  21  25
ENDBRANCH  20  23
ENDBRANCH  19  20
ENDBRANCH   1  19
TORSDOF 7
