REMARK VINA RESULT:      -8.9      0.000      0.000
REMARK  Name = ZINC000186872603
REMARK                            x       y       z     vdW  Elec       q    Type
REMARK                         _______ _______ _______ _____ _____    ______ ____
ROOT
ATOM      1  N   LIG    1       26.154  43.813 181.702  0.00  0.00    -0.297 N 
ATOM      2  C   LIG    1       27.048  42.896 182.456  0.00  0.00    +0.123 C 
ATOM      3  C   LIG    1       26.202  41.700 182.962  0.00  0.00    +0.103 C 
ATOM      4  N   LIG    1       25.085  42.176 183.829  0.00  0.00    -0.299 NA
ATOM      5  C   LIG    1       24.199  43.086 183.035  0.00  0.00    +0.103 C 
ATOM      6  C   LIG    1       24.983  44.304 182.476  0.00  0.00    +0.123 C 
ENDROOT
BRANCH   1  10
ATOM      7  C   LIG    1       25.609  46.235 177.628  0.00  0.00    +0.066 C 
ATOM      8  C   LIG    1       26.471  45.817 178.794  0.00  0.00    +0.044 A 
ATOM      9  N   LIG    1       25.952  45.019 179.704  0.00  0.00    -0.220 NA
ATOM     10  C   LIG    1       26.710  44.650 180.744  0.00  0.00    +0.218 A 
ATOM     11  N   LIG    1       27.978  45.046 180.911  0.00  0.00    -0.219 NA
ATOM     12  C   LIG    1       28.526  45.849 180.015  0.00  0.00    +0.049 A 
ATOM     13  C   LIG    1       27.777  46.261 178.922  0.00  0.00    +0.046 A 
BRANCH  12  14
ATOM     14  C   LIG    1       29.969  46.313 180.192  0.00  0.00    +0.032 C 
ATOM     15  C   LIG    1       30.074  47.162 181.468  0.00  0.00    +0.014 C 
ATOM     16  C   LIG    1       30.394  47.126 178.959  0.00  0.00    +0.014 C 
ENDBRANCH  12  14
ENDBRANCH   1  10
BRANCH   4  17
ATOM     17  C   LIG    1       25.560  42.740 185.110  0.00  0.00    +0.085 C 
BRANCH  17  18
ATOM     18  C   LIG    1       24.605  42.167 186.172  0.00  0.00    +0.025 C 
BRANCH  18  19
ATOM     19  C   LIG    1       25.303  42.231 187.544  0.00  0.00    +0.097 C 
BRANCH  19  20
ATOM     20  C   LIG    1       24.349  42.851 188.543  0.00  0.00    +0.197 A 
ATOM     21  O   LIG    1       23.125  43.264 188.116  0.00  0.00    -0.440 OA
ATOM     22  C   LIG    1       22.528  43.747 189.210  0.00  0.00    +0.155 A 
ATOM     23  C   LIG    1       21.258  44.301 189.354  0.00  0.00    +0.048 A 
ATOM     24  C   LIG    1       20.882  44.730 190.623  0.00  0.00    +0.004 A 
ATOM     25  C   LIG    1       21.770  44.602 191.710  0.00  0.00    +0.002 A 
ATOM     26  C   LIG    1       23.034  44.043 191.533  0.00  0.00    +0.031 A 
ATOM     27  C   LIG    1       23.407  43.612 190.257  0.00  0.00    +0.110 A 
ATOM     28  N   LIG    1       24.563  43.031 189.793  0.00  0.00    -0.213 NA
ENDBRANCH  19  20
ENDBRANCH  18  19
ENDBRANCH  17  18
ENDBRANCH   4  17
TORSDOF 6
