REMARK VINA RESULT:      -7.4     29.431     31.121
REMARK  Name = ZINC000000622958
REMARK                            x       y       z     vdW  Elec       q    Type
REMARK                         _______ _______ _______ _____ _____    ______ ____
ROOT
ATOM      1  C   LIG    1       30.588  15.451 197.315  0.00  0.00    +0.271 C 
ATOM      2  N   LIG    1       31.193  16.719 197.637  0.00  0.00    -0.157 N 
ATOM      3  C   LIG    1       32.448  16.790 197.249  0.00  0.00    +0.250 C 
ATOM      4  C   LIG    1       33.361  17.991 197.447  0.00  0.00    +0.124 C 
ATOM      5  C   LIG    1       33.591  18.637 196.061  0.00  0.00    +0.012 C 
ATOM      6  C   LIG    1       34.641  17.826 195.277  0.00  0.00    +0.004 C 
ATOM      7  C   LIG    1       34.211  16.415 194.822  0.00  0.00    +0.045 C 
ATOM      8  C   LIG    1       34.125  15.468 196.035  0.00  0.00    +0.236 C 
ATOM      9  N   LIG    1       32.802  15.689 196.638  0.00  0.00    -0.258 N 
ATOM     10  C   LIG    1       31.687  14.726 196.498  0.00  0.00    +0.323 C 
ENDROOT
BRANCH   1  11
ATOM     11  C   LIG    1       29.300  15.635 196.506  0.00  0.00    +0.034 A 
ATOM     12  C   LIG    1       28.055  15.457 197.136  0.00  0.00    +0.060 A 
ATOM     13  C   LIG    1       26.899  15.619 196.391  0.00  0.00    +0.167 A 
ATOM     14  O   LIG    1       25.629  15.481 196.826  0.00  0.00    -0.453 OA
ATOM     15  C   LIG    1       24.762  15.756 195.651  0.00  0.00    +0.466 C 
ATOM     16  O   LIG    1       25.699  16.058 194.543  0.00  0.00    -0.453 OA
ATOM     17  C   LIG    1       26.941  15.953 195.063  0.00  0.00    +0.166 A 
ATOM     18  C   LIG    1       28.148  16.141 194.408  0.00  0.00    +0.050 A 
ATOM     19  C   LIG    1       29.330  15.979 195.137  0.00  0.00    +0.014 A 
ENDBRANCH   1  11
BRANCH   2  20
ATOM     20  C   LIG    1       30.472  17.781 198.243  0.00  0.00    +0.124 A 
ATOM     21  C   LIG    1       30.398  17.858 199.633  0.00  0.00    +0.050 A 
ATOM     22  C   LIG    1       29.699  18.912 200.217  0.00  0.00    +0.024 A 
ATOM     23  C   LIG    1       29.085  19.875 199.410  0.00  0.00    +0.041 A 
ATOM     24 CL   LIG    1       28.220  21.183 200.140  0.00  0.00    -0.084 Cl
ATOM     25  C   LIG    1       29.167  19.787 198.016  0.00  0.00    +0.024 A 
ATOM     26  C   LIG    1       29.863  18.736 197.427  0.00  0.00    +0.050 A 
ENDBRANCH   2  20
BRANCH   1  27
ATOM     27  O   LIG    1       30.378  14.791 198.556  0.00  0.00    -0.347 OA
ATOM     28  H   LIG    1       29.612  14.207 198.456  0.00  0.00    +0.215 HD
ENDBRANCH   1  27
TORSDOF 3
