REMARK VINA RESULT:      -6.9     24.247     26.928
REMARK  Name = ZINC000000538144
REMARK                            x       y       z     vdW  Elec       q    Type
REMARK                         _______ _______ _______ _____ _____    ______ ____
ROOT
ATOM      1  C   LIG    1       15.500  33.975 209.612  0.00  0.00    +0.163 A 
ATOM      2  C   LIG    1       15.969  35.118 208.889  0.00  0.00    +0.162 A 
ATOM      3  C   LIG    1       16.243  36.306 209.547  0.00  0.00    +0.059 A 
ATOM      4  C   LIG    1       16.064  36.381 210.940  0.00  0.00    +0.007 A 
ATOM      5  C   LIG    1       16.263  37.409 211.894  0.00  0.00    -0.018 A 
ATOM      6  C   LIG    1       15.935  36.917 213.120  0.00  0.00    +0.017 A 
ATOM      7  C   LIG    1       15.955  37.580 214.480  0.00  0.00    +0.063 C 
ATOM      8  N   LIG    1       15.525  35.608 212.957  0.00  0.00    -0.358 N 
ATOM      9  H   LIG    1       15.207  34.982 213.712  0.00  0.00    +0.166 HD
ATOM     10  C   LIG    1       15.606  35.261 211.622  0.00  0.00    +0.051 A 
ATOM     11  C   LIG    1       15.314  34.045 210.988  0.00  0.00    +0.075 A 
ENDROOT
BRANCH   1  13
ATOM     12  C   LIG    1       14.392  31.707 209.425  0.00  0.00    +0.277 C 
ATOM     13  O   LIG    1       15.225  32.784 208.941  0.00  0.00    -0.491 OA
ENDBRANCH   1  13
BRANCH   2  14
ATOM     14  O   LIG    1       16.191  35.145 207.510  0.00  0.00    -0.491 OA
ATOM     15  C   LIG    1       17.390  34.775 206.795  0.00  0.00    +0.277 C 
ENDBRANCH   2  14
BRANCH   5  16
ATOM     16  C   LIG    1       16.771  38.800 211.578  0.00  0.00    +0.053 C 
BRANCH  16  17
ATOM     17  C   LIG    1       18.202  38.845 212.136  0.00  0.00    +0.089 C 
BRANCH  17  18
ATOM     18  N   LIG    1       19.093  38.228 211.116  0.00  0.00    -0.299 NA
ATOM     19  C   LIG    1       20.549  38.231 211.486  0.00  0.00    +0.103 C 
ATOM     20  C   LIG    1       21.134  39.672 211.481  0.00  0.00    +0.120 C 
ATOM     21  N   LIG    1       20.916  40.257 210.134  0.00  0.00    -0.327 N 
ATOM     22  C   LIG    1       19.475  40.317 209.792  0.00  0.00    +0.120 C 
ATOM     23  C   LIG    1       18.931  38.863 209.772  0.00  0.00    +0.103 C 
BRANCH  21  24
ATOM     24  C   LIG    1       21.710  41.398 209.879  0.00  0.00    +0.030 A 
ATOM     25  C   LIG    1       22.981  41.305 209.293  0.00  0.00    +0.023 A 
ATOM     26  C   LIG    1       23.719  42.460 209.056  0.00  0.00    +0.002 A 
ATOM     27  C   LIG    1       23.202  43.707 209.400  0.00  0.00    +0.000 A 
ATOM     28  C   LIG    1       21.941  43.799 209.986  0.00  0.00    +0.002 A 
ATOM     29  C   LIG    1       21.198  42.650 210.229  0.00  0.00    +0.023 A 
ENDBRANCH  21  24
ENDBRANCH  17  18
ENDBRANCH  16  17
ENDBRANCH   5  16
TORSDOF 6
