REMARK VINA RESULT:      -6.6      2.609      8.112
REMARK  Name = ZINC000000623134
REMARK                            x       y       z     vdW  Elec       q    Type
REMARK                         _______ _______ _______ _____ _____    ______ ____
ROOT
ATOM      1  N   LIG    1       22.841  43.355 187.179  0.00  0.00    -0.299 N 
ATOM      2  H   LIG    1       21.926  43.500 186.738  0.00  0.00    +0.150 HD
ENDROOT
BRANCH   1   5
ATOM      3  C   LIG    1       23.806  44.088 189.951  0.00  0.00    +0.409 C 
ATOM      4  N   LIG    1       22.990  44.715 189.055  0.00  0.00    -0.212 N 
ATOM      5  C   LIG    1       23.336  44.620 187.640  0.00  0.00    +0.235 C 
ATOM      6  S   LIG    1       22.227  45.810 186.777  0.00  0.00    -0.086 S 
ATOM      7  C   LIG    1       21.365  46.115 188.250  0.00  0.00    +0.006 C 
ATOM      8  C   LIG    1       20.184  46.985 188.540  0.00  0.00    +0.044 C 
ATOM      9  C   LIG    1       19.823  46.477 189.976  0.00  0.00    +0.011 C 
ATOM     10  C   LIG    1       21.102  45.816 190.588  0.00  0.00    +0.052 C 
ATOM     11  C   LIG    1       21.841  45.510 189.324  0.00  0.00    +0.029 C 
ATOM     12  O   LIG    1       24.812  43.474 189.601  0.00  0.00    -0.226 OA
BRANCH   3  13
ATOM     13  O   LIG    1       23.458  44.192 191.248  0.00  0.00    -0.450 OA
BRANCH  13  15
ATOM     14  C   LIG    1       22.200  43.504 193.110  0.00  0.00    +0.048 C 
ATOM     15  C   LIG    1       23.148  43.014 192.018  0.00  0.00    +0.230 C 
ENDBRANCH  13  15
ENDBRANCH   3  13
ENDBRANCH   1   5
BRANCH   1  16
ATOM     16  C   LIG    1       23.671  42.615 186.385  0.00  0.00    +0.136 C 
ATOM     17  S   LIG    1       24.671  41.430 187.018  0.00  0.00    -0.018 S 
BRANCH  16  18
ATOM     18  N   LIG    1       23.608  43.015 185.059  0.00  0.00    -0.297 N 
ATOM     19  H   LIG    1       22.695  43.410 184.768  0.00  0.00    +0.154 HD
BRANCH  18  20
ATOM     20  C   LIG    1       24.697  43.215 184.190  0.00  0.00    +0.033 A 
ATOM     21  C   LIG    1       25.643  42.192 184.094  0.00  0.00    +0.027 A 
ATOM     22  C   LIG    1       26.750  42.353 183.267  0.00  0.00    +0.047 A 
ATOM     23  C   LIG    1       26.903  43.541 182.546  0.00  0.00    +0.120 A 
ATOM     24  C   LIG    1       25.964  44.566 182.649  0.00  0.00    +0.047 A 
ATOM     25  C   LIG    1       24.858  44.407 183.476  0.00  0.00    +0.027 A 
BRANCH  23  26
ATOM     26  O   LIG    1       27.981  43.758 181.710  0.00  0.00    -0.495 OA
ATOM     27  C   LIG    1       28.020  44.740 180.651  0.00  0.00    +0.277 C 
ENDBRANCH  23  26
ENDBRANCH  18  20
ENDBRANCH  16  18
ENDBRANCH   1  16
TORSDOF 7
