REMARK VINA RESULT:      -6.4     30.340     32.226
REMARK  Name = ZINC000070728784
REMARK                            x       y       z     vdW  Elec       q    Type
REMARK                         _______ _______ _______ _____ _____    ______ ____
ROOT
ATOM      1  C   LIG    1       36.622  20.818 189.732  0.00  0.00    +0.251 C 
ATOM      2  N   LIG    1       37.933  20.906 190.144  0.00  0.00    -0.261 N 
ATOM      3  H   LIG    1       38.636  20.647 189.442  0.00  0.00    +0.157 HD
ATOM      4  O   LIG    1       35.741  21.306 190.427  0.00  0.00    -0.270 OA
ENDROOT
BRANCH   1   6
ATOM      5  C   LIG    1       36.226  18.715 188.378  0.00  0.00    +0.020 A 
ATOM      6  C   LIG    1       36.333  20.127 188.481  0.00  0.00    +0.050 A 
ATOM      7  C   LIG    1       36.132  20.897 187.325  0.00  0.00    +0.014 A 
ATOM      8  C   LIG    1       35.780  20.309 186.118  0.00  0.00    +0.001 A 
ATOM      9  C   LIG    1       35.624  18.927 186.041  0.00  0.00    +0.001 A 
ATOM     10  C   LIG    1       35.843  18.137 187.160  0.00  0.00    +0.015 A 
BRANCH   5  11
ATOM     11  S   LIG    1       36.570  17.619 189.695  0.00  0.00    -0.122 S 
BRANCH  11  13
ATOM     12  C   LIG    1       38.846  17.009 190.991  0.00  0.00    +0.019 C 
ATOM     13  C   LIG    1       38.379  17.382 189.584  0.00  0.00    +0.045 C 
ATOM     14  C   LIG    1       38.601  16.239 188.594  0.00  0.00    +0.019 C 
ENDBRANCH  11  13
ENDBRANCH   5  11
ENDBRANCH   1   6
BRANCH   2  15
ATOM     15  C   LIG    1       38.425  21.368 191.371  0.00  0.00    +0.165 A 
ATOM     16  S   LIG    1       38.153  20.367 192.747  0.00  0.00    -0.060 S 
ATOM     17  C   LIG    1       38.953  21.558 193.682  0.00  0.00    +0.073 A 
ATOM     18  C   LIG    1       39.355  22.603 192.908  0.00  0.00    +0.064 A 
ATOM     19  N   LIG    1       39.049  22.491 191.581  0.00  0.00    -0.228 NA
BRANCH  18  20
ATOM     20  C   LIG    1       40.093  23.818 193.439  0.00  0.00    +0.140 C 
BRANCH  20  21
ATOM     21  N   LIG    1       40.047  23.767 194.933  0.00  0.00    -0.292 NA
ATOM     22  C   LIG    1       39.365  24.948 195.557  0.00  0.00    +0.113 C 
ATOM     23  C   LIG    1       40.250  26.209 195.392  0.00  0.00    +0.175 C 
ATOM     24  O   LIG    1       41.506  25.936 196.014  0.00  0.00    -0.377 OA
ATOM     25  C   LIG    1       42.221  24.885 195.368  0.00  0.00    +0.175 C 
ATOM     26  C   LIG    1       41.396  23.584 195.537  0.00  0.00    +0.113 C 
ENDBRANCH  20  21
ENDBRANCH  18  20
ENDBRANCH   2  15
TORSDOF 6
