REMARK VINA RESULT:      -7.0     25.288     27.897
REMARK  Name = ZINC000006087397
REMARK                            x       y       z     vdW  Elec       q    Type
REMARK                         _______ _______ _______ _____ _____    ______ ____
ROOT
ATOM      1  C   LIG    1       23.158  41.447 209.242  0.00  0.00    +0.214 C 
ENDROOT
BRANCH   1   7
ATOM      2  C   LIG    1       20.615  40.356 213.212  0.00  0.00    +0.010 C 
ATOM      3  C   LIG    1       19.527  40.022 212.168  0.00  0.00    +0.018 C 
ATOM      4  C   LIG    1       20.132  39.797 210.744  0.00  0.00    +0.115 C 
ATOM      5  C   LIG    1       20.898  41.019 210.250  0.00  0.00    +0.247 C 
ATOM      6  O   LIG    1       20.531  42.175 210.136  0.00  0.00    -0.273 OA
ATOM      7  N   LIG    1       22.157  40.618 209.922  0.00  0.00    -0.215 N 
ATOM      8  C   LIG    1       22.314  39.283 210.193  0.00  0.00    +0.310 C 
ATOM      9  O   LIG    1       23.322  38.632 209.989  0.00  0.00    -0.252 OA
ATOM     10  N   LIG    1       21.184  38.790 210.736  0.00  0.00    -0.285 N 
ATOM     11  H   LIG    1       21.029  37.776 210.758  0.00  0.00    +0.151 HD
ATOM     12  C   LIG    1       19.032  39.423 209.717  0.00  0.00    +0.035 C 
ATOM     13  C   LIG    1       18.276  38.171 210.202  0.00  0.00    +0.003 C 
ATOM     14  C   LIG    1       17.675  38.384 211.597  0.00  0.00    +0.000 C 
ATOM     15  C   LIG    1       18.762  38.758 212.612  0.00  0.00    +0.006 C 
ENDBRANCH   1   7
BRANCH   1  16
ATOM     16  C   LIG    1       24.000  42.125 210.329  0.00  0.00    +0.238 C 
ATOM     17  N   LIG    1       25.099  42.941 210.029  0.00  0.00    -0.267 N 
ATOM     18  O   LIG    1       23.724  41.926 211.499  0.00  0.00    -0.274 OA
BRANCH  17  19
ATOM     19  C   LIG    1       25.845  43.627 211.041  0.00  0.00    +0.010 C 
ATOM     20  C   LIG    1       25.192  44.864 211.642  0.00  0.00    +0.051 C 
ATOM     21  C   LIG    1       26.310  45.745 212.240  0.00  0.00    +0.006 C 
ATOM     22  C   LIG    1       27.102  44.867 213.230  0.00  0.00    +0.004 C 
ATOM     23  C   LIG    1       27.952  43.867 212.417  0.00  0.00    +0.029 C 
ATOM     24  C   LIG    1       27.060  43.170 211.404  0.00  0.00    -0.008 C 
ENDBRANCH  17  19
BRANCH  17  25
ATOM     25  C   LIG    1       25.528  43.169 208.634  0.00  0.00    +0.187 C 
BRANCH  25  26
ATOM     26  C   LIG    1       24.989  44.537 208.261  0.00  0.00    +0.122 A 
ATOM     27  O   LIG    1       23.649  44.761 208.180  0.00  0.00    -0.466 OA
ATOM     28  C   LIG    1       23.474  46.061 207.835  0.00  0.00    +0.195 A 
ATOM     29  C   LIG    1       24.679  46.658 207.700  0.00  0.00    +0.041 A 
ATOM     30  C   LIG    1       25.646  45.685 207.972  0.00  0.00    +0.046 A 
ENDBRANCH  25  26
ENDBRANCH  17  25
ENDBRANCH   1  16
TORSDOF 5
