REMARK VINA RESULT:      -6.1     28.455     30.395
REMARK  Name = ZINC000000623134
REMARK                            x       y       z     vdW  Elec       q    Type
REMARK                         _______ _______ _______ _____ _____    ______ ____
ROOT
ATOM      1  N   LIG    1       29.679  16.068 197.083  0.00  0.00    -0.299 N 
ATOM      2  H   LIG    1       28.712  16.359 197.268  0.00  0.00    +0.150 HD
ENDROOT
BRANCH   1   5
ATOM      3  C   LIG    1       31.958  17.213 198.710  0.00  0.00    +0.409 C 
ATOM      4  N   LIG    1       30.877  17.778 198.099  0.00  0.00    -0.212 N 
ATOM      5  C   LIG    1       30.466  17.236 196.808  0.00  0.00    +0.235 C 
ATOM      6  S   LIG    1       29.207  18.410 196.154  0.00  0.00    -0.086 S 
ATOM      7  C   LIG    1       29.224  19.297 197.644  0.00  0.00    +0.006 C 
ATOM      8  C   LIG    1       28.438  20.489 198.090  0.00  0.00    +0.044 C 
ATOM      9  C   LIG    1       28.783  20.479 199.618  0.00  0.00    +0.011 C 
ATOM     10  C   LIG    1       30.120  19.689 199.804  0.00  0.00    +0.052 C 
ATOM     11  C   LIG    1       30.102  18.886 198.541  0.00  0.00    +0.029 C 
ATOM     12  O   LIG    1       32.590  16.289 198.200  0.00  0.00    -0.226 OA
BRANCH   3  13
ATOM     13  O   LIG    1       32.310  17.734 199.901  0.00  0.00    -0.450 OA
BRANCH  13  15
ATOM     14  C   LIG    1       33.830  19.504 199.611  0.00  0.00    +0.048 C 
ATOM     15  C   LIG    1       33.681  18.090 200.168  0.00  0.00    +0.230 C 
ENDBRANCH  13  15
ENDBRANCH   3  13
ENDBRANCH   1   5
BRANCH   1  16
ATOM     16  C   LIG    1       29.734  15.053 196.171  0.00  0.00    +0.136 C 
ATOM     17  S   LIG    1       30.982  14.932 195.060  0.00  0.00    -0.018 S 
BRANCH  16  18
ATOM     18  N   LIG    1       28.629  14.220 196.259  0.00  0.00    -0.297 N 
ATOM     19  H   LIG    1       28.832  13.266 196.612  0.00  0.00    +0.154 HD
BRANCH  18  20
ATOM     20  C   LIG    1       27.277  14.609 196.214  0.00  0.00    +0.033 A 
ATOM     21  C   LIG    1       26.408  14.034 197.141  0.00  0.00    +0.027 A 
ATOM     22  C   LIG    1       25.058  14.368 197.120  0.00  0.00    +0.047 A 
ATOM     23  C   LIG    1       24.589  15.273 196.164  0.00  0.00    +0.120 A 
ATOM     24  C   LIG    1       25.455  15.841 195.232  0.00  0.00    +0.047 A 
ATOM     25  C   LIG    1       26.804  15.507 195.251  0.00  0.00    +0.027 A 
BRANCH  23  26
ATOM     26  O   LIG    1       23.259  15.643 196.094  0.00  0.00    -0.495 OA
ATOM     27  C   LIG    1       22.213  14.851 195.489  0.00  0.00    +0.277 C 
ENDBRANCH  23  26
ENDBRANCH  18  20
ENDBRANCH  16  18
ENDBRANCH   1  16
TORSDOF 7
