REMARK VINA RESULT:      -8.3     28.552     32.320
REMARK  Name = ZINC000049420917
REMARK                            x       y       z     vdW  Elec       q    Type
REMARK                         _______ _______ _______ _____ _____    ______ ____
ROOT
ATOM      1  N   LIG    1       24.525  42.779 180.868  0.00  0.00    -0.205 N 
ATOM      2  C   LIG    1       24.547  44.191 180.757  0.00  0.00    +0.160 A 
ATOM      3  N   LIG    1       23.572  44.773 180.044  0.00  0.00    -0.238 NA
ATOM      4  C   LIG    1       23.566  46.099 179.910  0.00  0.00    +0.113 A 
ATOM      5  C   LIG    1       24.541  46.900 180.499  0.00  0.00    +0.022 A 
ATOM      6  C   LIG    1       25.554  46.311 181.248  0.00  0.00    +0.034 A 
ATOM      7  C   LIG    1       25.555  44.927 181.366  0.00  0.00    +0.149 A 
ATOM      8  S   LIG    1       26.696  43.982 182.318  0.00  0.00    +0.082 S 
ATOM      9  O   LIG    1       27.670  43.421 181.462  0.00  0.00    -0.150 OA
ATOM     10  O   LIG    1       27.171  44.774 183.394  0.00  0.00    -0.150 OA
ATOM     11  N   LIG    1       25.758  42.776 182.911  0.00  0.00    -0.150 N 
ATOM     12  C   LIG    1       25.160  42.081 181.906  0.00  0.00    +0.334 C 
ATOM     13  O   LIG    1       25.168  40.854 181.919  0.00  0.00    -0.250 OA
ENDROOT
BRANCH   1  18
ATOM     14  C   LIG    1       21.876  39.727 176.831  0.00  0.00    +0.044 C 
ATOM     15  C   LIG    1       22.575  40.544 177.897  0.00  0.00    -0.050 A 
ATOM     16  C   LIG    1       21.968  40.743 179.138  0.00  0.00    +0.005 A 
ATOM     17  C   LIG    1       22.609  41.483 180.126  0.00  0.00    +0.024 A 
ATOM     18  C   LIG    1       23.868  42.020 179.862  0.00  0.00    +0.044 A 
ATOM     19  C   LIG    1       24.490  41.826 178.630  0.00  0.00    +0.024 A 
ATOM     20  C   LIG    1       23.839  41.085 177.649  0.00  0.00    +0.005 A 
ENDBRANCH   1  18
BRANCH  11  21
ATOM     21  C   LIG    1       26.367  42.048 184.022  0.00  0.00    +0.171 C 
BRANCH  21  22
ATOM     22  C   LIG    1       25.360  42.200 185.144  0.00  0.00    -0.028 A 
ATOM     23  C   LIG    1       25.549  41.513 186.349  0.00  0.00    +0.008 A 
ATOM     24  C   LIG    1       24.630  41.652 187.386  0.00  0.00    +0.038 A 
ATOM     25  C   LIG    1       23.535  42.484 187.201  0.00  0.00    +0.123 A 
ATOM     26  F   LIG    1       22.639  42.620 188.208  0.00  0.00    -0.205 F 
ATOM     27  C   LIG    1       23.328  43.181 186.019  0.00  0.00    +0.038 A 
ATOM     28  C   LIG    1       24.250  43.036 184.986  0.00  0.00    +0.008 A 
ENDBRANCH  21  22
ENDBRANCH  11  21
TORSDOF 3
