REMARK VINA RESULT:      -7.0      2.854      5.921
REMARK  Name = ligand.pdb
REMARK  7 active torsions:
REMARK  status: ('A' for Active; 'I' for Inactive)
REMARK    1  A    between atoms: C1_1  and  C6_8
REMARK    2  A    between atoms: C2_3  and  C3_5
REMARK    3  A    between atoms: C2_3  and  C11_13
REMARK    4  A    between atoms: C3_5  and  C4_6
REMARK    5  A    between atoms: C3_5  and  C5_7
REMARK    6  A    between atoms: C6_8  and  C7_9
REMARK    7  A    between atoms: C6_8  and  C8_10
REMARK                            x       y       z     vdW  Elec       q    Type
REMARK                         _______ _______ _______ _____ _____    ______ ____
ROOT
ATOM      1  C8  IBP A 701      26.404  34.456 199.929  0.00  0.00    +0.000 A 
ATOM      2  C9  IBP A 701      27.815  34.491 200.026  0.00  0.00    +0.000 A 
ATOM      3  C10 IBP A 701      28.507  33.692 200.971  0.00  0.00    +0.000 A 
ATOM      4  C11 IBP A 701      27.815  32.826 201.858  0.00  0.00    +0.000 A 
ATOM      5  C12 IBP A 701      26.409  32.789 201.760  0.00  0.00    +0.000 A 
ATOM      6  C13 IBP A 701      25.714  33.588 200.814  0.00  0.00    +0.000 A 
ENDROOT
BRANCH   1   7
ATOM      7  C6  IBP A 701      25.671  35.347 198.897  0.00  0.00    +0.000 C 
ATOM      8  C7  IBP A 701      24.254  35.739 199.325  0.00  0.00    +0.000 C 
BRANCH   7   9
ATOM      9  C1  IBP A 701      25.662  34.630 197.556  0.00  0.00    +0.000 C 
ATOM     10  O1  IBP A 701      26.394  35.205 196.639  0.00  0.00    +0.000 OA
ATOM     11  O2  IBP A 701      25.014  33.614 197.331  0.00  0.00    +0.000 OA
ENDBRANCH   7   9
ENDBRANCH   1   7
BRANCH   4  12
ATOM     12  C2  IBP A 701      28.571  31.979 202.876  0.00  0.00    +0.000 C 
BRANCH  12  13
ATOM     13  C3  IBP A 701      28.841  32.664 204.222  0.00  0.00    +0.000 C 
ATOM     14  C4  IBP A 701      27.651  33.528 204.617  0.00  0.00    +0.000 C 
ATOM     15  C5  IBP A 701      30.085  33.522 204.160  0.00  0.00    +0.000 C 
ENDBRANCH  12  13
ENDBRANCH   4  12
TORSDOF 4
