REMARK VINA RESULT:      -6.6      3.165      4.289
REMARK  Name = ZINC000000623134
REMARK                            x       y       z     vdW  Elec       q    Type
REMARK                         _______ _______ _______ _____ _____    ______ ____
ROOT
ATOM      1  N   LIG    1       22.816  46.878 184.673  0.00  0.00    -0.299 N 
ATOM      2  H   LIG    1       23.408  47.716 184.687  0.00  0.00    +0.150 HD
ENDROOT
BRANCH   1   5
ATOM      3  C   LIG    1       23.342  43.993 183.929  0.00  0.00    +0.409 C 
ATOM      4  N   LIG    1       23.809  45.178 183.441  0.00  0.00    -0.212 N 
ATOM      5  C   LIG    1       22.874  46.296 183.362  0.00  0.00    +0.235 C 
ATOM      6  S   LIG    1       23.740  47.601 182.394  0.00  0.00    -0.086 S 
ATOM      7  C   LIG    1       25.199  46.664 182.387  0.00  0.00    +0.006 C 
ATOM      8  C   LIG    1       26.553  46.952 181.823  0.00  0.00    +0.044 C 
ATOM      9  C   LIG    1       27.373  45.798 182.493  0.00  0.00    +0.011 C 
ATOM     10  C   LIG    1       26.372  44.665 182.892  0.00  0.00    +0.052 C 
ATOM     11  C   LIG    1       25.109  45.467 182.941  0.00  0.00    +0.029 C 
ATOM     12  O   LIG    1       22.172  43.845 184.279  0.00  0.00    -0.226 OA
BRANCH   3  13
ATOM     13  O   LIG    1       24.230  42.982 183.991  0.00  0.00    -0.450 OA
BRANCH  13  15
ATOM     14  C   LIG    1       25.909  41.645 184.951  0.00  0.00    +0.048 C 
ATOM     15  C   LIG    1       24.658  42.463 185.266  0.00  0.00    +0.230 C 
ENDBRANCH  13  15
ENDBRANCH   3  13
ENDBRANCH   1   5
BRANCH   1  16
ATOM     16  C   LIG    1       21.576  47.128 185.187  0.00  0.00    +0.136 C 
ATOM     17  S   LIG    1       20.223  47.250 184.207  0.00  0.00    -0.018 S 
BRANCH  16  18
ATOM     18  N   LIG    1       21.615  47.315 186.560  0.00  0.00    -0.297 N 
ATOM     19  H   LIG    1       21.364  48.271 186.875  0.00  0.00    +0.154 HD
BRANCH  18  20
ATOM     20  C   LIG    1       21.659  46.309 187.545  0.00  0.00    +0.033 A 
ATOM     21  C   LIG    1       20.738  46.388 188.590  0.00  0.00    +0.027 A 
ATOM     22  C   LIG    1       20.758  45.432 189.600  0.00  0.00    +0.047 A 
ATOM     23  C   LIG    1       21.708  44.406 189.557  0.00  0.00    +0.120 A 
ATOM     24  C   LIG    1       22.634  44.333 188.518  0.00  0.00    +0.047 A 
ATOM     25  C   LIG    1       22.615  45.289 187.509  0.00  0.00    +0.027 A 
BRANCH  23  26
ATOM     26  O   LIG    1       21.776  43.429 190.531  0.00  0.00    -0.495 OA
ATOM     27  C   LIG    1       22.759  43.387 191.589  0.00  0.00    +0.277 C 
ENDBRANCH  23  26
ENDBRANCH  18  20
ENDBRANCH  16  18
ENDBRANCH   1  16
TORSDOF 7
