MODEL 1
REMARK VINA RESULT:      -9.6      0.000      0.000
REMARK  Name = ZINC000006083766
REMARK                            x       y       z     vdW  Elec       q    Type
REMARK                         _______ _______ _______ _____ _____    ______ ____
ROOT
ATOM      1  O   LIG    1       30.733  17.775 185.874  0.00  0.00    -0.468 OA
ENDROOT
BRANCH   1   2
ATOM      2  C   LIG    1       29.431  17.493 186.127  0.00  0.00    +0.227 A 
ATOM      3  C   LIG    1       28.597  17.050 185.086  0.00  0.00    +0.073 A 
ATOM      4  C   LIG    1       28.837  16.812 183.702  0.00  0.00    -0.023 A 
ATOM      5  C   LIG    1       30.178  17.013 183.009  0.00  0.00    +0.037 C 
ATOM      6  C   LIG    1       30.121  16.333 181.629  0.00  0.00    +0.005 C 
ATOM      7  C   LIG    1       28.827  16.683 180.873  0.00  0.00    +0.005 C 
ATOM      8  C   LIG    1       27.599  16.074 181.571  0.00  0.00    +0.043 C 
ATOM      9  C   LIG    1       27.711  16.412 183.043  0.00  0.00    -0.004 A 
ATOM     10  S   LIG    1       26.332  16.287 184.089  0.00  0.00    -0.073 S 
ATOM     11  C   LIG    1       27.281  16.801 185.440  0.00  0.00    +0.116 A 
ATOM     12  N   LIG    1       26.821  16.960 186.705  0.00  0.00    -0.228 NA
ATOM     13  C   LIG    1       27.677  17.373 187.608  0.00  0.00    +0.226 A 
ATOM     14  N   LIG    1       28.985  17.650 187.355  0.00  0.00    -0.201 NA
ENDBRANCH   1   2
BRANCH   1  15
ATOM     15  C   LIG    1       31.342  19.054 186.218  0.00  0.00    +0.310 C 
BRANCH  15  17
ATOM     16  O   LIG    1       32.712  18.987 184.282  0.00  0.00    -0.288 OA
ATOM     17  C   LIG    1       32.673  19.180 185.483  0.00  0.00    +0.200 C 
BRANCH  17  18
ATOM     18  C   LIG    1       33.881  19.577 186.207  0.00  0.00    +0.025 A 
ATOM     19  C   LIG    1       34.381  18.815 187.282  0.00  0.00    +0.061 A 
ATOM     20  C   LIG    1       35.530  19.223 187.943  0.00  0.00    +0.163 A 
ATOM     21  O   LIG    1       36.024  18.455 188.976  0.00  0.00    -0.485 OA
ATOM     22  C   LIG    1       37.399  18.692 189.409  0.00  0.00    +0.270 C 
ATOM     23  C   LIG    1       37.564  20.212 189.567  0.00  0.00    +0.270 C 
ATOM     24  O   LIG    1       37.305  20.807 188.260  0.00  0.00    -0.485 OA
ATOM     25  C   LIG    1       36.190  20.398 187.570  0.00  0.00    +0.162 A 
ATOM     26  C   LIG    1       35.718  21.159 186.508  0.00  0.00    +0.050 A 
ATOM     27  C   LIG    1       34.570  20.750 185.834  0.00  0.00    +0.015 A 
ENDBRANCH  17  18
ENDBRANCH  15  17
ENDBRANCH   1  15
TORSDOF 4
ENDMDL
MODEL 2
REMARK VINA RESULT:      -9.5     26.761     28.192
REMARK  Name = ZINC000006083766
REMARK                            x       y       z     vdW  Elec       q    Type
REMARK                         _______ _______ _______ _____ _____    ______ ____
ROOT
ATOM      1  O   LIG    1       22.925  44.981 187.085  0.00  0.00    -0.468 OA
ENDROOT
BRANCH   1   2
ATOM      2  C   LIG    1       21.958  45.722 187.683  0.00  0.00    +0.227 A 
ATOM      3  C   LIG    1       21.716  45.575 189.060  0.00  0.00    +0.073 A 
ATOM      4  C   LIG    1       22.312  44.747 190.054  0.00  0.00    -0.023 A 
ATOM      5  C   LIG    1       23.439  43.757 189.794  0.00  0.00    +0.037 C 
ATOM      6  C   LIG    1       24.027  43.321 191.149  0.00  0.00    +0.005 C 
ATOM      7  C   LIG    1       22.925  42.954 192.158  0.00  0.00    +0.005 C 
ATOM      8  C   LIG    1       22.108  44.194 192.558  0.00  0.00    +0.043 C 
ATOM      9  C   LIG    1       21.730  44.909 191.278  0.00  0.00    -0.004 A 
ATOM     10  S   LIG    1       20.462  46.094 191.265  0.00  0.00    -0.073 S 
ATOM     11  C   LIG    1       20.700  46.365 189.574  0.00  0.00    +0.116 A 
ATOM     12  N   LIG    1       19.991  47.232 188.812  0.00  0.00    -0.228 NA
ATOM     13  C   LIG    1       20.295  47.301 187.539  0.00  0.00    +0.226 A 
ATOM     14  N   LIG    1       21.268  46.562 186.942  0.00  0.00    -0.201 NA
ENDBRANCH   1   2
BRANCH   1  15
ATOM     15  C   LIG    1       22.772  44.418 185.750  0.00  0.00    +0.310 C 
BRANCH  15  17
ATOM     16  O   LIG    1       23.537  42.251 186.339  0.00  0.00    -0.288 OA
ATOM     17  C   LIG    1       23.699  43.214 185.613  0.00  0.00    +0.200 C 
BRANCH  17  18
ATOM     18  C   LIG    1       24.740  43.198 184.585  0.00  0.00    +0.025 A 
ATOM     19  C   LIG    1       24.855  44.232 183.635  0.00  0.00    +0.061 A 
ATOM     20  C   LIG    1       25.856  44.182 182.676  0.00  0.00    +0.163 A 
ATOM     21  O   LIG    1       25.975  45.213 181.768  0.00  0.00    -0.485 OA
ATOM     22  C   LIG    1       27.224  45.327 181.020  0.00  0.00    +0.270 C 
ATOM     23  C   LIG    1       27.558  43.924 180.487  0.00  0.00    +0.270 C 
ATOM     24  O   LIG    1       27.708  43.052 181.648  0.00  0.00    -0.485 OA
ATOM     25  C   LIG    1       26.745  43.104 182.627  0.00  0.00    +0.162 A 
ATOM     26  C   LIG    1       26.655  42.079 183.560  0.00  0.00    +0.050 A 
ATOM     27  C   LIG    1       25.657  42.127 184.531  0.00  0.00    +0.015 A 
ENDBRANCH  17  18
ENDBRANCH  15  17
ENDBRANCH   1  15
TORSDOF 4
ENDMDL
MODEL 3
REMARK VINA RESULT:      -9.4      1.596      3.178
REMARK  Name = ZINC000006083766
REMARK                            x       y       z     vdW  Elec       q    Type
REMARK                         _______ _______ _______ _____ _____    ______ ____
ROOT
ATOM      1  O   LIG    1       31.272  17.558 184.660  0.00  0.00    -0.468 OA
ENDROOT
BRANCH   1   2
ATOM      2  C   LIG    1       30.288  17.225 183.788  0.00  0.00    +0.227 A 
ATOM      3  C   LIG    1       28.973  17.049 184.252  0.00  0.00    +0.073 A 
ATOM      4  C   LIG    1       28.394  17.150 185.550  0.00  0.00    -0.023 A 
ATOM      5  C   LIG    1       29.163  17.502 186.815  0.00  0.00    +0.037 C 
ATOM      6  C   LIG    1       28.149  17.845 187.923  0.00  0.00    +0.005 C 
ATOM      7  C   LIG    1       27.015  16.810 187.999  0.00  0.00    +0.005 C 
ATOM      8  C   LIG    1       26.132  16.865 186.741  0.00  0.00    +0.043 C 
ATOM      9  C   LIG    1       27.061  16.858 185.545  0.00  0.00    -0.004 A 
ATOM     10  S   LIG    1       26.465  16.478 183.960  0.00  0.00    -0.073 S 
ATOM     11  C   LIG    1       28.043  16.697 183.288  0.00  0.00    +0.116 A 
ATOM     12  N   LIG    1       28.366  16.541 181.981  0.00  0.00    -0.228 NA
ATOM     13  C   LIG    1       29.619  16.732 181.646  0.00  0.00    +0.226 A 
ATOM     14  N   LIG    1       30.604  17.072 182.520  0.00  0.00    -0.201 NA
ENDBRANCH   1   2
BRANCH   1  15
ATOM     15  C   LIG    1       32.264  18.586 184.373  0.00  0.00    +0.310 C 
BRANCH  15  17
ATOM     16  O   LIG    1       31.387  20.025 186.042  0.00  0.00    -0.288 OA
ATOM     17  C   LIG    1       32.387  19.505 185.584  0.00  0.00    +0.200 C 
BRANCH  17  18
ATOM     18  C   LIG    1       33.688  19.719 186.218  0.00  0.00    +0.025 A 
ATOM     19  C   LIG    1       34.167  18.862 187.230  0.00  0.00    +0.061 A 
ATOM     20  C   LIG    1       35.406  19.097 187.806  0.00  0.00    +0.163 A 
ATOM     21  O   LIG    1       35.874  18.236 188.776  0.00  0.00    -0.485 OA
ATOM     22  C   LIG    1       37.297  18.281 189.103  0.00  0.00    +0.270 C 
ATOM     23  C   LIG    1       37.670  19.761 189.285  0.00  0.00    +0.270 C 
ATOM     24  O   LIG    1       37.391  20.429 188.018  0.00  0.00    -0.485 OA
ATOM     25  C   LIG    1       36.182  20.190 187.410  0.00  0.00    +0.162 A 
ATOM     26  C   LIG    1       35.733  21.042 186.409  0.00  0.00    +0.050 A 
ATOM     27  C   LIG    1       34.494  20.807 185.820  0.00  0.00    +0.015 A 
ENDBRANCH  17  18
ENDBRANCH  15  17
ENDBRANCH   1  15
TORSDOF 4
ENDMDL
MODEL 4
REMARK VINA RESULT:      -9.1     27.045     28.280
REMARK  Name = ZINC000006083766
REMARK                            x       y       z     vdW  Elec       q    Type
REMARK                         _______ _______ _______ _____ _____    ______ ____
ROOT
ATOM      1  O   LIG    1       22.185  45.609 185.037  0.00  0.00    -0.468 OA
ENDROOT
BRANCH   1   2
ATOM      2  C   LIG    1       22.965  45.423 183.943  0.00  0.00    +0.227 A 
ATOM      3  C   LIG    1       23.886  44.362 183.914  0.00  0.00    +0.073 A 
ATOM      4  C   LIG    1       24.213  43.351 184.863  0.00  0.00    -0.023 A 
ATOM      5  C   LIG    1       23.564  43.207 186.232  0.00  0.00    +0.037 C 
ATOM      6  C   LIG    1       23.927  41.823 186.802  0.00  0.00    +0.005 C 
ATOM      7  C   LIG    1       25.427  41.519 186.648  0.00  0.00    +0.005 C 
ATOM      8  C   LIG    1       25.808  41.355 185.166  0.00  0.00    +0.043 C 
ATOM      9  C   LIG    1       25.211  42.531 184.422  0.00  0.00    -0.004 A 
ATOM     10  S   LIG    1       25.765  42.948 182.830  0.00  0.00    -0.073 S 
ATOM     11  C   LIG    1       24.646  44.264 182.759  0.00  0.00    +0.116 A 
ATOM     12  N   LIG    1       24.510  45.120 181.719  0.00  0.00    -0.228 NA
ATOM     13  C   LIG    1       23.619  46.075 181.839  0.00  0.00    +0.226 A 
ATOM     14  N   LIG    1       22.833  46.257 182.934  0.00  0.00    -0.201 NA
ENDBRANCH   1   2
BRANCH   1  15
ATOM     15  C   LIG    1       22.384  46.713 185.967  0.00  0.00    +0.310 C 
BRANCH  15  17
ATOM     16  O   LIG    1       20.166  47.160 186.680  0.00  0.00    -0.288 OA
ATOM     17  C   LIG    1       21.252  46.707 186.990  0.00  0.00    +0.200 C 
BRANCH  17  18
ATOM     18  C   LIG    1       21.456  46.116 188.313  0.00  0.00    +0.025 A 
ATOM     19  C   LIG    1       22.427  45.119 188.534  0.00  0.00    +0.061 A 
ATOM     20  C   LIG    1       22.592  44.584 189.803  0.00  0.00    +0.163 A 
ATOM     21  O   LIG    1       23.563  43.628 190.012  0.00  0.00    -0.485 OA
ATOM     22  C   LIG    1       23.964  43.348 191.389  0.00  0.00    +0.270 C 
ATOM     23  C   LIG    1       22.673  43.182 192.208  0.00  0.00    +0.270 C 
ATOM     24  O   LIG    1       21.942  44.441 192.109  0.00  0.00    -0.485 OA
ATOM     25  C   LIG    1       21.790  45.008 190.867  0.00  0.00    +0.162 A 
ATOM     26  C   LIG    1       20.833  45.996 190.672  0.00  0.00    +0.050 A 
ATOM     27  C   LIG    1       20.668  46.544 189.402  0.00  0.00    +0.015 A 
ENDBRANCH  17  18
ENDBRANCH  15  17
ENDBRANCH   1  15
TORSDOF 4
ENDMDL
MODEL 5
REMARK VINA RESULT:      -9.0     27.258     28.690
REMARK  Name = ZINC000006083766
REMARK                            x       y       z     vdW  Elec       q    Type
REMARK                         _______ _______ _______ _____ _____    ______ ____
ROOT
ATOM      1  O   LIG    1       22.218  45.698 186.786  0.00  0.00    -0.468 OA
ENDROOT
BRANCH   1   2
ATOM      2  C   LIG    1       21.317  46.343 187.569  0.00  0.00    +0.227 A 
ATOM      3  C   LIG    1       21.255  46.058 188.944  0.00  0.00    +0.073 A 
ATOM      4  C   LIG    1       21.994  45.163 189.771  0.00  0.00    -0.023 A 
ATOM      5  C   LIG    1       23.104  44.246 189.277  0.00  0.00    +0.037 C 
ATOM      6  C   LIG    1       23.870  43.706 190.498  0.00  0.00    +0.005 C 
ATOM      7  C   LIG    1       22.916  43.204 191.595  0.00  0.00    +0.005 C 
ATOM      8  C   LIG    1       22.125  44.369 192.214  0.00  0.00    +0.043 C 
ATOM      9  C   LIG    1       21.569  45.188 191.068  0.00  0.00    -0.004 A 
ATOM     10  S   LIG    1       20.279  46.319 191.328  0.00  0.00    -0.073 S 
ATOM     11  C   LIG    1       20.293  46.757 189.656  0.00  0.00    +0.116 A 
ATOM     12  N   LIG    1       19.471  47.665 189.077  0.00  0.00    -0.228 NA
ATOM     13  C   LIG    1       19.608  47.865 187.789  0.00  0.00    +0.226 A 
ATOM     14  N   LIG    1       20.516  47.222 187.005  0.00  0.00    -0.201 NA
ENDBRANCH   1   2
BRANCH   1  15
ATOM     15  C   LIG    1       22.699  46.247 185.525  0.00  0.00    +0.310 C 
BRANCH  15  17
ATOM     16  O   LIG    1       21.125  45.557 183.890  0.00  0.00    -0.288 OA
ATOM     17  C   LIG    1       22.219  45.356 184.384  0.00  0.00    +0.200 C 
BRANCH  17  18
ATOM     18  C   LIG    1       23.086  44.302 183.857  0.00  0.00    +0.025 A 
ATOM     19  C   LIG    1       23.021  43.899 182.508  0.00  0.00    +0.061 A 
ATOM     20  C   LIG    1       23.860  42.896 182.045  0.00  0.00    +0.163 A 
ATOM     21  O   LIG    1       23.805  42.529 180.717  0.00  0.00    -0.485 OA
ATOM     22  C   LIG    1       24.917  41.754 180.174  0.00  0.00    +0.270 C 
ATOM     23  C   LIG    1       25.203  40.619 181.171  0.00  0.00    +0.270 C 
ATOM     24  O   LIG    1       25.558  41.247 182.440  0.00  0.00    -0.485 OA
ATOM     25  C   LIG    1       24.760  42.263 182.907  0.00  0.00    +0.162 A 
ATOM     26  C   LIG    1       24.846  42.652 184.238  0.00  0.00    +0.050 A 
ATOM     27  C   LIG    1       24.012  43.663 184.707  0.00  0.00    +0.015 A 
ENDBRANCH  17  18
ENDBRANCH  15  17
ENDBRANCH   1  15
TORSDOF 4
ENDMDL
MODEL 6
REMARK VINA RESULT:      -8.8     29.233     30.646
REMARK  Name = ZINC000006083766
REMARK                            x       y       z     vdW  Elec       q    Type
REMARK                         _______ _______ _______ _____ _____    ______ ____
ROOT
ATOM      1  O   LIG    1       22.502  44.737 186.459  0.00  0.00    -0.468 OA
ENDROOT
BRANCH   1   2
ATOM      2  C   LIG    1       23.213  44.022 187.367  0.00  0.00    +0.227 A 
ATOM      3  C   LIG    1       22.954  44.182 188.739  0.00  0.00    +0.073 A 
ATOM      4  C   LIG    1       22.031  45.001 189.451  0.00  0.00    -0.023 A 
ATOM      5  C   LIG    1       21.046  45.962 188.800  0.00  0.00    +0.037 C 
ATOM      6  C   LIG    1       20.012  46.391 189.857  0.00  0.00    +0.005 C 
ATOM      7  C   LIG    1       20.682  46.789 191.183  0.00  0.00    +0.005 C 
ATOM      8  C   LIG    1       21.332  45.571 191.860  0.00  0.00    +0.043 C 
ATOM      9  C   LIG    1       22.149  44.858 190.803  0.00  0.00    -0.004 A 
ATOM     10  S   LIG    1       23.366  43.704 191.251  0.00  0.00    -0.073 S 
ATOM     11  C   LIG    1       23.741  43.419 189.587  0.00  0.00    +0.116 A 
ATOM     12  N   LIG    1       24.690  42.565 189.134  0.00  0.00    -0.228 NA
ATOM     13  C   LIG    1       24.853  42.483 187.836  0.00  0.00    +0.226 A 
ATOM     14  N   LIG    1       24.136  43.196 186.926  0.00  0.00    -0.201 NA
ENDBRANCH   1   2
BRANCH   1  15
ATOM     15  C   LIG    1       22.994  45.013 185.116  0.00  0.00    +0.310 C 
BRANCH  15  17
ATOM     16  O   LIG    1       21.237  45.042 183.522  0.00  0.00    -0.288 OA
ATOM     17  C   LIG    1       21.888  45.695 184.316  0.00  0.00    +0.200 C 
BRANCH  17  18
ATOM     18  C   LIG    1       21.582  47.108 184.538  0.00  0.00    +0.025 A 
ATOM     19  C   LIG    1       20.283  47.538 184.877  0.00  0.00    +0.061 A 
ATOM     20  C   LIG    1       20.031  48.886 185.080  0.00  0.00    +0.163 A 
ATOM     21  O   LIG    1       18.762  49.290 185.437  0.00  0.00    -0.485 OA
ATOM     22  C   LIG    1       18.602  50.632 185.993  0.00  0.00    +0.270 C 
ATOM     23  C   LIG    1       19.378  51.593 185.078  0.00  0.00    +0.270 C 
ATOM     24  O   LIG    1       20.774  51.168 185.102  0.00  0.00    -0.485 OA
ATOM     25  C   LIG    1       21.050  49.833 184.933  0.00  0.00    +0.162 A 
ATOM     26  C   LIG    1       22.339  49.430 184.608  0.00  0.00    +0.050 A 
ATOM     27  C   LIG    1       22.600  48.077 184.410  0.00  0.00    +0.015 A 
ENDBRANCH  17  18
ENDBRANCH  15  17
ENDBRANCH   1  15
TORSDOF 4
ENDMDL
MODEL 7
REMARK VINA RESULT:      -8.7      2.238      3.639
REMARK  Name = ZINC000006083766
REMARK                            x       y       z     vdW  Elec       q    Type
REMARK                         _______ _______ _______ _____ _____    ______ ____
ROOT
ATOM      1  O   LIG    1       32.365  18.331 185.410  0.00  0.00    -0.468 OA
ENDROOT
BRANCH   1   2
ATOM      2  C   LIG    1       31.804  17.862 184.268  0.00  0.00    +0.227 A 
ATOM      3  C   LIG    1       30.464  17.437 184.270  0.00  0.00    +0.073 A 
ATOM      4  C   LIG    1       29.478  17.383 185.297  0.00  0.00    -0.023 A 
ATOM      5  C   LIG    1       29.706  17.817 186.738  0.00  0.00    +0.037 C 
ATOM      6  C   LIG    1       28.337  17.931 187.435  0.00  0.00    +0.005 C 
ATOM      7  C   LIG    1       27.449  16.708 187.152  0.00  0.00    +0.005 C 
ATOM      8  C   LIG    1       27.040  16.654 185.670  0.00  0.00    +0.043 C 
ATOM      9  C   LIG    1       28.298  16.858 184.854  0.00  0.00    -0.004 A 
ATOM     10  S   LIG    1       28.342  16.440 183.170  0.00  0.00    -0.073 S 
ATOM     11  C   LIG    1       29.987  16.962 183.059  0.00  0.00    +0.116 A 
ATOM     12  N   LIG    1       30.748  16.918 181.939  0.00  0.00    -0.228 NA
ATOM     13  C   LIG    1       31.985  17.341 182.036  0.00  0.00    +0.226 A 
ATOM     14  N   LIG    1       32.545  17.817 183.182  0.00  0.00    -0.201 NA
ENDBRANCH   1   2
BRANCH   1  15
ATOM     15  C   LIG    1       33.800  18.282 185.660  0.00  0.00    +0.310 C 
BRANCH  15  17
ATOM     16  O   LIG    1       33.658  20.545 186.355  0.00  0.00    -0.288 OA
ATOM     17  C   LIG    1       34.187  19.466 186.540  0.00  0.00    +0.200 C 
BRANCH  17  18
ATOM     18  C   LIG    1       35.149  19.291 187.629  0.00  0.00    +0.025 A 
ATOM     19  C   LIG    1       35.736  18.040 187.902  0.00  0.00    +0.061 A 
ATOM     20  C   LIG    1       36.645  17.914 188.942  0.00  0.00    +0.163 A 
ATOM     21  O   LIG    1       37.232  16.690 189.183  0.00  0.00    -0.485 OA
ATOM     22  C   LIG    1       38.429  16.657 190.020  0.00  0.00    +0.270 C 
ATOM     23  C   LIG    1       38.131  17.512 191.263  0.00  0.00    +0.270 C 
ATOM     24  O   LIG    1       37.846  18.864 190.791  0.00  0.00    -0.485 OA
ATOM     25  C   LIG    1       36.972  19.014 189.741  0.00  0.00    +0.162 A 
ATOM     26  C   LIG    1       36.412  20.259 189.483  0.00  0.00    +0.050 A 
ATOM     27  C   LIG    1       35.505  20.393 188.435  0.00  0.00    +0.015 A 
ENDBRANCH  17  18
ENDBRANCH  15  17
ENDBRANCH   1  15
TORSDOF 4
ENDMDL
MODEL 8
REMARK VINA RESULT:      -8.4      4.206      9.223
REMARK  Name = ZINC000006083766
REMARK                            x       y       z     vdW  Elec       q    Type
REMARK                         _______ _______ _______ _____ _____    ______ ____
ROOT
ATOM      1  O   LIG    1       34.934  18.775 186.541  0.00  0.00    -0.468 OA
ENDROOT
BRANCH   1   2
ATOM      2  C   LIG    1       36.240  18.836 186.178  0.00  0.00    +0.227 A 
ATOM      3  C   LIG    1       37.226  18.291 187.018  0.00  0.00    +0.073 A 
ATOM      4  C   LIG    1       37.151  17.632 188.279  0.00  0.00    -0.023 A 
ATOM      5  C   LIG    1       35.861  17.364 189.040  0.00  0.00    +0.037 C 
ATOM      6  C   LIG    1       36.157  16.349 190.160  0.00  0.00    +0.005 C 
ATOM      7  C   LIG    1       37.426  16.720 190.946  0.00  0.00    +0.005 C 
ATOM      8  C   LIG    1       38.679  16.585 190.064  0.00  0.00    +0.043 C 
ATOM      9  C   LIG    1       38.383  17.293 188.759  0.00  0.00    -0.004 A 
ATOM     10  S   LIG    1       39.668  17.740 187.680  0.00  0.00    -0.073 S 
ATOM     11  C   LIG    1       38.530  18.415 186.567  0.00  0.00    +0.116 A 
ATOM     12  N   LIG    1       38.843  19.010 185.391  0.00  0.00    -0.228 NA
ATOM     13  C   LIG    1       37.853  19.483 184.674  0.00  0.00    +0.226 A 
ATOM     14  N   LIG    1       36.544  19.416 185.036  0.00  0.00    -0.201 NA
ENDBRANCH   1   2
BRANCH   1  15
ATOM     15  C   LIG    1       33.917  19.646 185.967  0.00  0.00    +0.310 C 
BRANCH  15  17
ATOM     16  O   LIG    1       31.993  19.008 187.200  0.00  0.00    -0.288 OA
ATOM     17  C   LIG    1       32.553  18.979 186.120  0.00  0.00    +0.200 C 
BRANCH  17  18
ATOM     18  C   LIG    1       31.904  18.354 184.967  0.00  0.00    +0.025 A 
ATOM     19  C   LIG    1       30.520  18.090 184.954  0.00  0.00    +0.061 A 
ATOM     20  C   LIG    1       29.940  17.497 183.842  0.00  0.00    +0.163 A 
ATOM     21  O   LIG    1       28.581  17.268 183.830  0.00  0.00    -0.485 OA
ATOM     22  C   LIG    1       27.944  16.990 182.545  0.00  0.00    +0.270 C 
ATOM     23  C   LIG    1       28.807  15.935 181.834  0.00  0.00    +0.270 C 
ATOM     24  O   LIG    1       30.133  16.519 181.658  0.00  0.00    -0.485 OA
ATOM     25  C   LIG    1       30.718  17.139 182.736  0.00  0.00    +0.162 A 
ATOM     26  C   LIG    1       32.082  17.399 182.726  0.00  0.00    +0.050 A 
ATOM     27  C   LIG    1       32.669  18.001 183.836  0.00  0.00    +0.015 A 
ENDBRANCH  17  18
ENDBRANCH  15  17
ENDBRANCH   1  15
TORSDOF 4
ENDMDL
MODEL 9
REMARK VINA RESULT:      -8.3      4.126      9.469
REMARK  Name = ZINC000006083766
REMARK                            x       y       z     vdW  Elec       q    Type
REMARK                         _______ _______ _______ _____ _____    ______ ____
ROOT
ATOM      1  O   LIG    1       35.163  20.753 186.625  0.00  0.00    -0.468 OA
ENDROOT
BRANCH   1   2
ATOM      2  C   LIG    1       36.365  20.207 186.315  0.00  0.00    +0.227 A 
ATOM      3  C   LIG    1       37.339  20.047 187.316  0.00  0.00    +0.073 A 
ATOM      4  C   LIG    1       37.345  20.360 188.706  0.00  0.00    -0.023 A 
ATOM      5  C   LIG    1       36.181  20.995 189.454  0.00  0.00    +0.037 C 
ATOM      6  C   LIG    1       36.439  20.856 190.965  0.00  0.00    +0.005 C 
ATOM      7  C   LIG    1       37.877  21.255 191.338  0.00  0.00    +0.005 C 
ATOM      8  C   LIG    1       38.895  20.260 190.756  0.00  0.00    +0.043 C 
ATOM      9  C   LIG    1       38.537  20.060 189.298  0.00  0.00    -0.004 A 
ATOM     10  S   LIG    1       39.678  19.362 188.192  0.00  0.00    -0.073 S 
ATOM     11  C   LIG    1       38.539  19.493 186.898  0.00  0.00    +0.116 A 
ATOM     12  N   LIG    1       38.763  19.117 185.616  0.00  0.00    -0.228 NA
ATOM     13  C   LIG    1       37.791  19.301 184.756  0.00  0.00    +0.226 A 
ATOM     14  N   LIG    1       36.583  19.844 185.069  0.00  0.00    -0.201 NA
ENDBRANCH   1   2
BRANCH   1  15
ATOM     15  C   LIG    1       33.976  20.562 185.801  0.00  0.00    +0.310 C 
BRANCH  15  17
ATOM     16  O   LIG    1       33.384  18.963 187.451  0.00  0.00    -0.288 OA
ATOM     17  C   LIG    1       33.218  19.338 186.306  0.00  0.00    +0.200 C 
BRANCH  17  18
ATOM     18  C   LIG    1       32.262  18.652 185.436  0.00  0.00    +0.025 A 
ATOM     19  C   LIG    1       30.992  18.255 185.901  0.00  0.00    +0.061 A 
ATOM     20  C   LIG    1       30.114  17.608 185.046  0.00  0.00    +0.163 A 
ATOM     21  O   LIG    1       28.865  17.248 185.506  0.00  0.00    -0.485 OA
ATOM     22  C   LIG    1       27.843  16.908 184.519  0.00  0.00    +0.270 C 
ATOM     23  C   LIG    1       28.491  15.941 183.516  0.00  0.00    +0.270 C 
ATOM     24  O   LIG    1       29.610  16.649 182.903  0.00  0.00    -0.485 OA
ATOM     25  C   LIG    1       30.480  17.324 183.726  0.00  0.00    +0.162 A 
ATOM     26  C   LIG    1       31.723  17.714 183.245  0.00  0.00    +0.050 A 
ATOM     27  C   LIG    1       32.607  18.372 184.096  0.00  0.00    +0.015 A 
ENDBRANCH  17  18
ENDBRANCH  15  17
ENDBRANCH   1  15
TORSDOF 4
ENDMDL
