REMARK VINA RESULT:      -8.0     28.693     30.693
REMARK  Name = ZINC000006086011
REMARK                            x       y       z     vdW  Elec       q    Type
REMARK                         _______ _______ _______ _____ _____    ______ ____
ROOT
ATOM      1  N   LIG    1       22.218  45.691 181.846  0.00  0.00    -0.286 NA
ATOM      2  C   LIG    1       21.375  44.849 180.970  0.00  0.00    +0.106 C 
ENDROOT
BRANCH   1   3
ATOM      3  C   LIG    1       23.638  45.175 181.979  0.00  0.00    +0.140 C 
ATOM      4  C   LIG    1       24.270  44.957 180.583  0.00  0.00    +0.034 C 
BRANCH   3   7
ATOM      5  N   LIG    1       24.372  43.913 183.939  0.00  0.00    -0.281 N 
ATOM      6  H   LIG    1       24.792  44.842 184.114  0.00  0.00    +0.155 HD
ATOM      7  C   LIG    1       23.628  43.862 182.790  0.00  0.00    +0.234 C 
ATOM      8  O   LIG    1       22.994  42.868 182.489  0.00  0.00    -0.274 OA
BRANCH   5  10
ATOM      9  C   LIG    1       23.782  43.080 186.108  0.00  0.00    +0.141 A 
ATOM     10  C   LIG    1       24.586  42.956 184.965  0.00  0.00    +0.076 A 
ATOM     11  C   LIG    1       25.540  41.939 184.890  0.00  0.00    +0.027 A 
ATOM     12  C   LIG    1       25.676  41.046 185.951  0.00  0.00    +0.002 A 
ATOM     13  C   LIG    1       24.872  41.167 187.084  0.00  0.00    +0.004 A 
ATOM     14  C   LIG    1       23.924  42.184 187.167  0.00  0.00    +0.047 A 
BRANCH   9  16
ATOM     15  C   LIG    1       22.635  45.011 187.254  0.00  0.00    +0.277 C 
ATOM     16  O   LIG    1       22.842  44.109 186.139  0.00  0.00    -0.493 OA
ENDBRANCH   9  16
ENDBRANCH   5  10
ENDBRANCH   3   7
ENDBRANCH   1   3
BRANCH   1  17
ATOM     17  C   LIG    1       21.542  45.966 183.172  0.00  0.00    +0.181 C 
BRANCH  17  18
ATOM     18  C   LIG    1       20.820  47.310 183.119  0.00  0.00    +0.231 C 
ATOM     19  N   LIG    1       21.141  48.220 184.096  0.00  0.00    -0.284 N 
ATOM     20  H   LIG    1       21.870  47.925 184.762  0.00  0.00    +0.155 HD
ATOM     21  O   LIG    1       19.980  47.564 182.277  0.00  0.00    -0.274 OA
BRANCH  19  22
ATOM     22  C   LIG    1       20.555  49.488 184.321  0.00  0.00    +0.041 A 
ATOM     23  C   LIG    1       19.571  49.603 185.353  0.00  0.00    +0.003 A 
ATOM     24  C   LIG    1       19.090  48.495 186.105  0.00  0.00    +0.010 A 
ATOM     25  C   LIG    1       18.170  48.669 187.110  0.00  0.00    +0.001 A 
ATOM     26  C   LIG    1       17.674  49.954 187.404  0.00  0.00    +0.001 A 
ATOM     27  C   LIG    1       18.103  51.042 186.682  0.00  0.00    +0.008 A 
ATOM     28  C   LIG    1       19.051  50.892 185.638  0.00  0.00    -0.016 A 
ATOM     29  C   LIG    1       19.487  52.007 184.876  0.00  0.00    +0.008 A 
ATOM     30  C   LIG    1       20.419  51.856 183.876  0.00  0.00    +0.002 A 
ATOM     31  C   LIG    1       20.965  50.590 183.595  0.00  0.00    +0.024 A 
ENDBRANCH  19  22
ENDBRANCH  17  18
ENDBRANCH   1  17
TORSDOF 7
