REMARK VINA RESULT:      -5.7     27.213     30.526
REMARK  Name = ZINC000000623135
REMARK                            x       y       z     vdW  Elec       q    Type
REMARK                         _______ _______ _______ _____ _____    ______ ____
ROOT
ATOM      1  N   LIG    1       36.768  19.134 191.092  0.00  0.00    -0.299 N 
ATOM      2  H   LIG    1       36.098  19.906 191.012  0.00  0.00    +0.150 HD
ENDROOT
BRANCH   1   5
ATOM      3  C   LIG    1       37.438  16.886 189.173  0.00  0.00    +0.409 C 
ATOM      4  N   LIG    1       37.201  18.223 189.022  0.00  0.00    -0.212 N 
ATOM      5  C   LIG    1       37.714  19.155 190.020  0.00  0.00    +0.235 C 
ATOM      6  S   LIG    1       37.449  20.834 189.301  0.00  0.00    -0.086 S 
ATOM      7  C   LIG    1       36.525  20.156 188.001  0.00  0.00    +0.006 C 
ATOM      8  C   LIG    1       35.747  20.799 186.896  0.00  0.00    +0.044 C 
ATOM      9  C   LIG    1       35.515  19.556 185.970  0.00  0.00    +0.011 C 
ATOM     10  C   LIG    1       35.679  18.265 186.840  0.00  0.00    +0.052 C 
ATOM     11  C   LIG    1       36.480  18.837 187.967  0.00  0.00    +0.029 C 
ATOM     12  O   LIG    1       36.957  16.036 188.430  0.00  0.00    -0.226 OA
BRANCH   3  13
ATOM     13  O   LIG    1       38.263  16.553 190.192  0.00  0.00    -0.450 OA
BRANCH  13  15
ATOM     14  C   LIG    1       40.423  16.973 191.056  0.00  0.00    +0.048 C 
ATOM     15  C   LIG    1       39.652  16.210 189.979  0.00  0.00    +0.230 C 
ENDBRANCH  13  15
ENDBRANCH   3  13
ENDBRANCH   1   5
BRANCH   1  16
ATOM     16  C   LIG    1       37.261  18.984 192.355  0.00  0.00    +0.136 C 
ATOM     17  S   LIG    1       37.926  20.216 193.273  0.00  0.00    -0.018 S 
BRANCH  16  18
ATOM     18  N   LIG    1       37.146  17.695 192.847  0.00  0.00    -0.297 N 
ATOM     19  H   LIG    1       38.045  17.226 193.017  0.00  0.00    +0.154 HD
BRANCH  18  20
ATOM     20  C   LIG    1       35.978  17.090 193.357  0.00  0.00    +0.033 A 
ATOM     21  C   LIG    1       35.281  16.140 192.602  0.00  0.00    +0.027 A 
ATOM     22  C   LIG    1       34.128  15.566 193.123  0.00  0.00    +0.047 A 
ATOM     23  C   LIG    1       33.685  15.934 194.393  0.00  0.00    +0.120 A 
ATOM     24  C   LIG    1       34.388  16.874 195.153  0.00  0.00    +0.047 A 
ATOM     25  C   LIG    1       35.540  17.452 194.632  0.00  0.00    +0.027 A 
BRANCH  23  26
ATOM     26  O   LIG    1       32.531  15.332 194.855  0.00  0.00    -0.495 OA
ATOM     27  C   LIG    1       31.235  15.424 194.222  0.00  0.00    +0.277 C 
ENDBRANCH  23  26
ENDBRANCH  18  20
ENDBRANCH  16  18
ENDBRANCH   1  16
TORSDOF 7
