REMARK VINA RESULT:      -7.5      2.306      6.777
REMARK  Name = ZINC000006083858
REMARK                            x       y       z     vdW  Elec       q    Type
REMARK                         _______ _______ _______ _____ _____    ______ ____
ROOT
ATOM      1  C   LIG    1       21.866  46.878 185.939  0.00  0.00    +0.257 A 
ATOM      2  C   LIG    1       20.684  47.701 186.154  0.00  0.00    +0.185 A 
ATOM      3  N   LIG    1       19.999  47.661 187.270  0.00  0.00    -0.225 NA
ATOM      4  C   LIG    1       20.476  46.807 188.237  0.00  0.00    +0.092 A 
ATOM      5  C   LIG    1       19.798  46.714 189.470  0.00  0.00    +0.030 A 
ATOM      6  C   LIG    1       20.251  45.866 190.461  0.00  0.00    +0.002 A 
ATOM      7  C   LIG    1       21.401  45.084 190.254  0.00  0.00    +0.002 A 
ATOM      8  C   LIG    1       22.083  45.159 189.057  0.00  0.00    +0.030 A 
ATOM      9  C   LIG    1       21.637  46.010 188.028  0.00  0.00    +0.093 A 
ATOM     10  N   LIG    1       22.333  46.049 186.834  0.00  0.00    -0.208 NA
ENDROOT
BRANCH   2  11
ATOM     11  N   LIG    1       20.202  48.542 185.141  0.00  0.00    -0.311 N 
ATOM     12  C   LIG    1       18.968  48.005 184.528  0.00  0.00    +0.131 C 
BRANCH  11  13
ATOM     13  C   LIG    1       20.273  50.019 185.377  0.00  0.00    +0.075 C 
ATOM     14  C   LIG    1       19.325  50.799 184.420  0.00  0.00    +0.022 C 
ATOM     15  C   LIG    1       19.738  50.587 182.948  0.00  0.00    +0.002 C 
ATOM     16  C   LIG    1       21.178  51.050 182.704  0.00  0.00    +0.000 C 
ATOM     17  C   LIG    1       22.126  50.310 183.653  0.00  0.00    +0.002 C 
ATOM     18  C   LIG    1       21.719  50.536 185.123  0.00  0.00    +0.022 C 
ENDBRANCH  11  13
ENDBRANCH   2  11
BRANCH   1  19
ATOM     19  O   LIG    1       22.526  46.953 184.730  0.00  0.00    -0.465 OA
BRANCH  19  20
ATOM     20  C   LIG    1       22.524  45.899 183.705  0.00  0.00    +0.326 C 
BRANCH  20  23
ATOM     21  N   LIG    1       23.773  43.981 184.531  0.00  0.00    -0.310 N 
ATOM     22  H   LIG    1       22.863  43.699 184.873  0.00  0.00    +0.149 HD
ATOM     23  C   LIG    1       23.825  45.127 183.850  0.00  0.00    +0.251 C 
ATOM     24  O   LIG    1       24.873  45.519 183.346  0.00  0.00    -0.272 OA
BRANCH  21  25
ATOM     25  C   LIG    1       24.879  43.071 184.750  0.00  0.00    +0.073 C 
ATOM     26  C   LIG    1       25.130  42.325 183.439  0.00  0.00    +0.028 C 
BRANCH  25  28
ATOM     27  C   LIG    1       25.775  42.074 186.910  0.00  0.00    +0.009 C 
ATOM     28  C   LIG    1       24.580  42.129 185.942  0.00  0.00    +0.003 C 
ATOM     29  C   LIG    1       23.314  42.489 186.746  0.00  0.00    +0.009 C 
ENDBRANCH  25  28
ENDBRANCH  21  25
ENDBRANCH  20  23
ENDBRANCH  19  20
ENDBRANCH   1  19
TORSDOF 7
