MODEL 1
REMARK VINA RESULT:      -8.0      0.000      0.000
REMARK  Name = ZINC000000622956
REMARK                            x       y       z     vdW  Elec       q    Type
REMARK                         _______ _______ _______ _____ _____    ______ ____
ROOT
ATOM      1  C   LIG    1       26.483  43.493 182.341  0.00  0.00    +0.271 C 
ATOM      2  N   LIG    1       25.483  43.798 181.346  0.00  0.00    -0.157 N 
ATOM      3  C   LIG    1       25.511  45.061 180.983  0.00  0.00    +0.250 C 
ATOM      4  C   LIG    1       24.612  45.690 179.928  0.00  0.00    +0.124 C 
ATOM      5  C   LIG    1       25.490  46.008 178.696  0.00  0.00    +0.012 C 
ATOM      6  C   LIG    1       26.290  47.300 178.945  0.00  0.00    +0.004 C 
ATOM      7  C   LIG    1       27.395  47.217 180.020  0.00  0.00    +0.045 C 
ATOM      8  C   LIG    1       26.766  47.128 181.423  0.00  0.00    +0.236 C 
ATOM      9  N   LIG    1       26.437  45.713 181.638  0.00  0.00    -0.258 N 
ATOM     10  C   LIG    1       27.205  44.845 182.555  0.00  0.00    +0.323 C 
ENDROOT
BRANCH   1  11
ATOM     11  C   LIG    1       25.849  42.987 183.642  0.00  0.00    +0.034 A 
ATOM     12  C   LIG    1       24.750  43.646 184.224  0.00  0.00    +0.060 A 
ATOM     13  C   LIG    1       24.213  43.136 185.396  0.00  0.00    +0.167 A 
ATOM     14  O   LIG    1       23.168  43.631 186.092  0.00  0.00    -0.453 OA
ATOM     15  C   LIG    1       22.981  42.723 187.252  0.00  0.00    +0.466 C 
ATOM     16  O   LIG    1       24.045  41.698 187.116  0.00  0.00    -0.453 OA
ATOM     17  C   LIG    1       24.722  42.011 185.991  0.00  0.00    +0.166 A 
ATOM     18  C   LIG    1       25.798  41.333 185.443  0.00  0.00    +0.050 A 
ATOM     19  C   LIG    1       26.358  41.826 184.263  0.00  0.00    +0.014 A 
ENDBRANCH   1  11
BRANCH   2  20
ATOM     20  C   LIG    1       24.637  42.821 180.768  0.00  0.00    +0.124 A 
ATOM     21  C   LIG    1       25.134  42.046 179.721  0.00  0.00    +0.050 A 
ATOM     22  C   LIG    1       24.312  41.084 179.142  0.00  0.00    +0.024 A 
ATOM     23  C   LIG    1       23.007  40.908 179.612  0.00  0.00    +0.041 A 
ATOM     24 CL   LIG    1       21.987  39.712 178.889  0.00  0.00    -0.084 Cl
ATOM     25  C   LIG    1       22.519  41.694 180.661  0.00  0.00    +0.024 A 
ATOM     26  C   LIG    1       23.337  42.658 181.245  0.00  0.00    +0.050 A 
ENDBRANCH   2  20
BRANCH   1  27
ATOM     27  O   LIG    1       27.357  42.535 181.757  0.00  0.00    -0.347 OA
ATOM     28  H   LIG    1       27.831  42.970 181.032  0.00  0.00    +0.215 HD
ENDBRANCH   1  27
TORSDOF 3
ENDMDL
MODEL 2
REMARK VINA RESULT:      -7.8     26.295     29.432
REMARK  Name = ZINC000000622956
REMARK                            x       y       z     vdW  Elec       q    Type
REMARK                         _______ _______ _______ _____ _____    ______ ____
ROOT
ATOM      1  C   LIG    1       22.501  41.606 209.731  0.00  0.00    +0.271 C 
ATOM      2  N   LIG    1       22.663  41.328 211.138  0.00  0.00    -0.157 N 
ATOM      3  C   LIG    1       21.525  41.022 211.720  0.00  0.00    +0.250 C 
ATOM      4  C   LIG    1       21.363  40.642 213.184  0.00  0.00    +0.124 C 
ATOM      5  C   LIG    1       21.030  39.133 213.241  0.00  0.00    +0.012 C 
ATOM      6  C   LIG    1       19.543  38.915 212.905  0.00  0.00    +0.004 C 
ATOM      7  C   LIG    1       19.127  39.205 211.447  0.00  0.00    +0.045 C 
ATOM      8  C   LIG    1       19.146  40.723 211.181  0.00  0.00    +0.236 C 
ATOM      9  N   LIG    1       20.538  41.067 210.863  0.00  0.00    -0.258 N 
ATOM     10  C   LIG    1       20.985  41.402 209.494  0.00  0.00    +0.323 C 
ENDROOT
BRANCH   1  11
ATOM     11  C   LIG    1       22.932  43.036 209.385  0.00  0.00    +0.034 A 
ATOM     12  C   LIG    1       24.022  43.284 208.532  0.00  0.00    +0.060 A 
ATOM     13  C   LIG    1       24.358  44.599 208.247  0.00  0.00    +0.167 A 
ATOM     14  O   LIG    1       25.367  45.026 207.458  0.00  0.00    -0.453 OA
ATOM     15  C   LIG    1       25.295  46.509 207.467  0.00  0.00    +0.466 C 
ATOM     16  O   LIG    1       24.154  46.835 208.356  0.00  0.00    -0.453 OA
ATOM     17  C   LIG    1       23.653  45.652 208.769  0.00  0.00    +0.166 A 
ATOM     18  C   LIG    1       22.569  45.445 209.605  0.00  0.00    +0.050 A 
ATOM     19  C   LIG    1       22.209  44.130 209.909  0.00  0.00    +0.014 A 
ENDBRANCH   1  11
BRANCH   2  20
ATOM     20  C   LIG    1       23.923  41.299 211.785  0.00  0.00    +0.124 A 
ATOM     21  C   LIG    1       24.525  40.063 212.012  0.00  0.00    +0.050 A 
ATOM     22  C   LIG    1       25.762  40.021 212.650  0.00  0.00    +0.024 A 
ATOM     23  C   LIG    1       26.379  41.210 213.053  0.00  0.00    +0.041 A 
ATOM     24 CL   LIG    1       27.916  41.153 213.847  0.00  0.00    -0.084 Cl
ATOM     25  C   LIG    1       25.761  42.443 212.821  0.00  0.00    +0.024 A 
ATOM     26  C   LIG    1       24.525  42.492 212.184  0.00  0.00    +0.050 A 
ENDBRANCH   2  20
BRANCH   1  27
ATOM     27  O   LIG    1       23.261  40.628 209.034  0.00  0.00    -0.347 OA
ATOM     28  H   LIG    1       23.100  39.771 209.457  0.00  0.00    +0.215 HD
ENDBRANCH   1  27
TORSDOF 3
ENDMDL
MODEL 3
REMARK VINA RESULT:      -7.6     26.973     29.337
REMARK  Name = ZINC000000622956
REMARK                            x       y       z     vdW  Elec       q    Type
REMARK                         _______ _______ _______ _____ _____    ______ ____
ROOT
ATOM      1  C   LIG    1       22.558  41.525 212.039  0.00  0.00    +0.271 C 
ATOM      2  N   LIG    1       22.401  41.587 210.606  0.00  0.00    -0.157 N 
ATOM      3  C   LIG    1       21.621  40.633 210.148  0.00  0.00    +0.250 C 
ATOM      4  C   LIG    1       21.227  40.448 208.690  0.00  0.00    +0.124 C 
ATOM      5  C   LIG    1       19.732  40.818 208.559  0.00  0.00    +0.012 C 
ATOM      6  C   LIG    1       18.860  39.651 209.060  0.00  0.00    +0.004 C 
ATOM      7  C   LIG    1       18.912  39.367 210.576  0.00  0.00    +0.045 C 
ATOM      8  C   LIG    1       20.270  38.745 210.954  0.00  0.00    +0.236 C 
ATOM      9  N   LIG    1       21.203  39.867 211.122  0.00  0.00    -0.258 N 
ATOM     10  C   LIG    1       21.688  40.311 212.446  0.00  0.00    +0.323 C 
ENDROOT
BRANCH   1  11
ATOM     11  C   LIG    1       24.024  41.317 212.438  0.00  0.00    +0.034 A 
ATOM     12  C   LIG    1       24.823  42.392 212.869  0.00  0.00    +0.060 A 
ATOM     13  C   LIG    1       26.139  42.141 213.227  0.00  0.00    +0.167 A 
ATOM     14  O   LIG    1       27.048  43.040 213.660  0.00  0.00    -0.453 OA
ATOM     15  C   LIG    1       28.292  42.273 213.922  0.00  0.00    +0.466 C 
ATOM     16  O   LIG    1       27.961  40.871 213.570  0.00  0.00    -0.453 OA
ATOM     17  C   LIG    1       26.671  40.879 213.176  0.00  0.00    +0.166 A 
ATOM     18  C   LIG    1       25.912  39.796 212.764  0.00  0.00    +0.050 A 
ATOM     19  C   LIG    1       24.583  40.021 212.398  0.00  0.00    +0.014 A 
ENDBRANCH   1  11
BRANCH   2  20
ATOM     20  C   LIG    1       22.954  42.618 209.808  0.00  0.00    +0.124 A 
ATOM     21  C   LIG    1       24.103  42.342 209.068  0.00  0.00    +0.050 A 
ATOM     22  C   LIG    1       24.658  43.348 208.281  0.00  0.00    +0.024 A 
ATOM     23  C   LIG    1       24.063  44.613 208.244  0.00  0.00    +0.041 A 
ATOM     24 CL   LIG    1       24.756  45.860 207.266  0.00  0.00    -0.084 Cl
ATOM     25  C   LIG    1       22.912  44.876 208.994  0.00  0.00    +0.024 A 
ATOM     26  C   LIG    1       22.352  43.875 209.783  0.00  0.00    +0.050 A 
ENDBRANCH   2  20
BRANCH   1  27
ATOM     27  O   LIG    1       22.022  42.734 212.559  0.00  0.00    -0.347 OA
ATOM     28  H   LIG    1       22.422  42.886 213.429  0.00  0.00    +0.215 HD
ENDBRANCH   1  27
TORSDOF 3
ENDMDL
MODEL 4
REMARK VINA RESULT:      -7.5     28.594     30.137
REMARK  Name = ZINC000000622956
REMARK                            x       y       z     vdW  Elec       q    Type
REMARK                         _______ _______ _______ _____ _____    ______ ____
ROOT
ATOM      1  C   LIG    1       31.099  17.896 198.724  0.00  0.00    +0.271 C 
ATOM      2  N   LIG    1       31.522  17.922 197.345  0.00  0.00    -0.157 N 
ATOM      3  C   LIG    1       32.789  18.251 197.219  0.00  0.00    +0.250 C 
ATOM      4  C   LIG    1       33.547  18.331 195.902  0.00  0.00    +0.124 C 
ATOM      5  C   LIG    1       34.541  17.148 195.862  0.00  0.00    +0.012 C 
ATOM      6  C   LIG    1       35.776  17.475 196.722  0.00  0.00    +0.004 C 
ATOM      7  C   LIG    1       35.542  17.549 198.246  0.00  0.00    +0.045 C 
ATOM      8  C   LIG    1       34.742  18.818 198.600  0.00  0.00    +0.236 C 
ATOM      9  N   LIG    1       33.327  18.484 198.388  0.00  0.00    -0.258 N 
ATOM     10  C   LIG    1       32.381  18.271 199.504  0.00  0.00    +0.323 C 
ENDROOT
BRANCH   1  11
ATOM     11  C   LIG    1       29.972  18.902 198.987  0.00  0.00    +0.034 A 
ATOM     12  C   LIG    1       28.658  18.474 199.252  0.00  0.00    +0.060 A 
ATOM     13  C   LIG    1       27.683  19.431 199.493  0.00  0.00    +0.167 A 
ATOM     14  O   LIG    1       26.379  19.209 199.761  0.00  0.00    -0.453 OA
ATOM     15  C   LIG    1       25.767  20.548 199.955  0.00  0.00    +0.466 C 
ATOM     16  O   LIG    1       26.875  21.512 199.746  0.00  0.00    -0.453 OA
ATOM     17  C   LIG    1       27.971  20.770 199.486  0.00  0.00    +0.166 A 
ATOM     18  C   LIG    1       29.255  21.227 199.237  0.00  0.00    +0.050 A 
ATOM     19  C   LIG    1       30.255  20.285 198.990  0.00  0.00    +0.014 A 
ENDBRANCH   1  11
BRANCH   2  20
ATOM     20  C   LIG    1       30.686  17.543 196.267  0.00  0.00    +0.124 A 
ATOM     21  C   LIG    1       30.778  16.241 195.779  0.00  0.00    +0.050 A 
ATOM     22  C   LIG    1       29.964  15.857 194.717  0.00  0.00    +0.024 A 
ATOM     23  C   LIG    1       29.071  16.775 194.156  0.00  0.00    +0.041 A 
ATOM     24 CL   LIG    1       28.061  16.295 192.836  0.00  0.00    -0.084 Cl
ATOM     25  C   LIG    1       28.991  18.080 194.653  0.00  0.00    +0.024 A 
ATOM     26  C   LIG    1       29.803  18.470 195.715  0.00  0.00    +0.050 A 
ENDBRANCH   2  20
BRANCH   1  27
ATOM     27  O   LIG    1       30.706  16.558 199.002  0.00  0.00    -0.347 OA
ATOM     28  H   LIG    1       30.653  16.459 199.965  0.00  0.00    +0.215 HD
ENDBRANCH   1  27
TORSDOF 3
ENDMDL
MODEL 5
REMARK VINA RESULT:      -7.4     28.715     32.367
REMARK  Name = ZINC000000622956
REMARK                            x       y       z     vdW  Elec       q    Type
REMARK                         _______ _______ _______ _____ _____    ______ ____
ROOT
ATOM      1  C   LIG    1       29.231  24.636 206.634  0.00  0.00    +0.271 C 
ATOM      2  N   LIG    1       28.844  23.673 207.637  0.00  0.00    -0.157 N 
ATOM      3  C   LIG    1       29.117  22.439 207.275  0.00  0.00    +0.250 C 
ATOM      4  C   LIG    1       28.866  21.201 208.123  0.00  0.00    +0.124 C 
ATOM      5  C   LIG    1       30.240  20.662 208.581  0.00  0.00    +0.012 C 
ATOM      6  C   LIG    1       30.903  19.879 207.433  0.00  0.00    +0.004 C 
ATOM      7  C   LIG    1       31.358  20.712 206.216  0.00  0.00    +0.045 C 
ATOM      8  C   LIG    1       30.134  21.195 205.415  0.00  0.00    +0.236 C 
ATOM      9  N   LIG    1       29.658  22.413 206.084  0.00  0.00    -0.258 N 
ATOM     10  C   LIG    1       29.845  23.763 205.512  0.00  0.00    +0.323 C 
ENDROOT
BRANCH   1  11
ATOM     11  C   LIG    1       28.027  25.434 206.122  0.00  0.00    +0.034 A 
ATOM     12  C   LIG    1       26.991  24.813 205.402  0.00  0.00    +0.060 A 
ATOM     13  C   LIG    1       25.922  25.585 204.973  0.00  0.00    +0.167 A 
ATOM     14  O   LIG    1       24.847  25.165 204.274  0.00  0.00    -0.453 OA
ATOM     15  C   LIG    1       23.991  26.363 204.077  0.00  0.00    +0.466 C 
ATOM     16  O   LIG    1       24.727  27.473 204.730  0.00  0.00    -0.453 OA
ATOM     17  C   LIG    1       25.851  26.927 205.239  0.00  0.00    +0.166 A 
ATOM     18  C   LIG    1       26.849  27.571 205.952  0.00  0.00    +0.050 A 
ATOM     19  C   LIG    1       27.937  26.817 206.395  0.00  0.00    +0.014 A 
ENDBRANCH   1  11
BRANCH   2  20
ATOM     20  C   LIG    1       28.317  24.036 208.900  0.00  0.00    +0.124 A 
ATOM     21  C   LIG    1       27.051  23.569 209.251  0.00  0.00    +0.050 A 
ATOM     22  C   LIG    1       26.520  23.921 210.489  0.00  0.00    +0.024 A 
ATOM     23  C   LIG    1       27.256  24.733 211.358  0.00  0.00    +0.041 A 
ATOM     24 CL   LIG    1       26.592  25.169 212.895  0.00  0.00    -0.084 Cl
ATOM     25  C   LIG    1       28.524  25.197 210.991  0.00  0.00    +0.024 A 
ATOM     26  C   LIG    1       29.060  24.849 209.754  0.00  0.00    +0.050 A 
ENDBRANCH   2  20
BRANCH   1  27
ATOM     27  O   LIG    1       30.218  25.467 207.230  0.00  0.00    -0.347 OA
ATOM     28  H   LIG    1       30.981  25.497 206.633  0.00  0.00    +0.215 HD
ENDBRANCH   1  27
TORSDOF 3
ENDMDL
MODEL 6
REMARK VINA RESULT:      -7.2     29.722     33.306
REMARK  Name = ZINC000000622956
REMARK                            x       y       z     vdW  Elec       q    Type
REMARK                         _______ _______ _______ _____ _____    ______ ____
ROOT
ATOM      1  C   LIG    1       28.326  25.453 209.198  0.00  0.00    +0.271 C 
ATOM      2  N   LIG    1       27.992  24.449 208.217  0.00  0.00    -0.157 N 
ATOM      3  C   LIG    1       27.642  24.976 207.064  0.00  0.00    +0.250 C 
ATOM      4  C   LIG    1       27.269  24.188 205.817  0.00  0.00    +0.124 C 
ATOM      5  C   LIG    1       28.413  24.365 204.793  0.00  0.00    +0.012 C 
ATOM      6  C   LIG    1       28.288  25.735 204.101  0.00  0.00    +0.004 C 
ATOM      7  C   LIG    1       28.557  26.970 204.987  0.00  0.00    +0.045 C 
ATOM      8  C   LIG    1       27.400  27.171 205.984  0.00  0.00    +0.236 C 
ATOM      9  N   LIG    1       27.678  26.283 207.121  0.00  0.00    -0.258 N 
ATOM     10  C   LIG    1       28.135  26.785 208.434  0.00  0.00    +0.323 C 
ENDROOT
BRANCH   1  11
ATOM     11  C   LIG    1       27.405  25.376 210.421  0.00  0.00    +0.034 A 
ATOM     12  C   LIG    1       27.897  25.000 211.684  0.00  0.00    +0.060 A 
ATOM     13  C   LIG    1       27.018  24.958 212.756  0.00  0.00    +0.167 A 
ATOM     14  O   LIG    1       27.308  24.621 214.030  0.00  0.00    -0.453 OA
ATOM     15  C   LIG    1       26.037  24.747 214.787  0.00  0.00    +0.466 C 
ATOM     16  O   LIG    1       25.031  25.171 213.783  0.00  0.00    -0.453 OA
ATOM     17  C   LIG    1       25.694  25.279 212.613  0.00  0.00    +0.166 A 
ATOM     18  C   LIG    1       25.175  25.661 211.387  0.00  0.00    +0.050 A 
ATOM     19  C   LIG    1       26.039  25.710 210.291  0.00  0.00    +0.014 A 
ENDBRANCH   1  11
BRANCH   2  20
ATOM     20  C   LIG    1       28.119  23.059 208.452  0.00  0.00    +0.124 A 
ATOM     21  C   LIG    1       27.068  22.391 209.079  0.00  0.00    +0.050 A 
ATOM     22  C   LIG    1       27.182  21.025 209.319  0.00  0.00    +0.024 A 
ATOM     23  C   LIG    1       28.341  20.344 208.933  0.00  0.00    +0.041 A 
ATOM     24 CL   LIG    1       28.480  18.645 209.234  0.00  0.00    -0.084 Cl
ATOM     25  C   LIG    1       29.390  21.027 208.308  0.00  0.00    +0.024 A 
ATOM     26  C   LIG    1       29.281  22.393 208.065  0.00  0.00    +0.050 A 
ENDBRANCH   2  20
BRANCH   1  27
ATOM     27  O   LIG    1       29.692  25.251 209.536  0.00  0.00    -0.347 OA
ATOM     28  H   LIG    1       29.723  24.831 210.408  0.00  0.00    +0.215 HD
ENDBRANCH   1  27
TORSDOF 3
ENDMDL
MODEL 7
REMARK VINA RESULT:      -7.2     25.969     28.539
REMARK  Name = ZINC000000622956
REMARK                            x       y       z     vdW  Elec       q    Type
REMARK                         _______ _______ _______ _____ _____    ______ ____
ROOT
ATOM      1  C   LIG    1       36.877  19.392 189.689  0.00  0.00    +0.271 C 
ATOM      2  N   LIG    1       38.270  19.211 189.361  0.00  0.00    -0.157 N 
ATOM      3  C   LIG    1       39.037  20.114 189.930  0.00  0.00    +0.250 C 
ATOM      4  C   LIG    1       40.553  20.176 189.815  0.00  0.00    +0.124 C 
ATOM      5  C   LIG    1       41.144  19.778 191.187  0.00  0.00    +0.012 C 
ATOM      6  C   LIG    1       41.058  20.970 192.158  0.00  0.00    +0.004 C 
ATOM      7  C   LIG    1       39.639  21.377 192.608  0.00  0.00    +0.045 C 
ATOM      8  C   LIG    1       38.882  22.045 191.444  0.00  0.00    +0.236 C 
ATOM      9  N   LIG    1       38.323  20.952 190.636  0.00  0.00    -0.258 N 
ATOM     10  C   LIG    1       36.882  20.623 190.627  0.00  0.00    +0.323 C 
ENDROOT
BRANCH   1  11
ATOM     11  C   LIG    1       36.031  19.650 188.436  0.00  0.00    +0.034 A 
ATOM     12  C   LIG    1       34.931  18.834 188.117  0.00  0.00    +0.060 A 
ATOM     13  C   LIG    1       34.197  19.122 186.976  0.00  0.00    +0.167 A 
ATOM     14  O   LIG    1       33.119  18.454 186.514  0.00  0.00    -0.453 OA
ATOM     15  C   LIG    1       32.695  19.163 185.280  0.00  0.00    +0.466 C 
ATOM     16  O   LIG    1       33.667  20.271 185.119  0.00  0.00    -0.453 OA
ATOM     17  C   LIG    1       34.515  20.180 186.165  0.00  0.00    +0.166 A 
ATOM     18  C   LIG    1       35.586  21.009 186.452  0.00  0.00    +0.050 A 
ATOM     19  C   LIG    1       36.342  20.740 187.594  0.00  0.00    +0.014 A 
ENDBRANCH   1  11
BRANCH   2  20
ATOM     20  C   LIG    1       38.753  18.126 188.590  0.00  0.00    +0.124 A 
ATOM     21  C   LIG    1       39.011  16.916 189.233  0.00  0.00    +0.050 A 
ATOM     22  C   LIG    1       39.489  15.842 188.487  0.00  0.00    +0.024 A 
ATOM     23  C   LIG    1       39.706  15.990 187.113  0.00  0.00    +0.041 A 
ATOM     24 CL   LIG    1       40.301  14.654 186.189  0.00  0.00    -0.084 Cl
ATOM     25  C   LIG    1       39.446  17.211 186.481  0.00  0.00    +0.024 A 
ATOM     26  C   LIG    1       38.968  18.288 187.222  0.00  0.00    +0.050 A 
ENDBRANCH   2  20
BRANCH   1  27
ATOM     27  O   LIG    1       36.469  18.222 190.386  0.00  0.00    -0.347 OA
ATOM     28  H   LIG    1       35.662  18.437 190.879  0.00  0.00    +0.215 HD
ENDBRANCH   1  27
TORSDOF 3
ENDMDL
MODEL 8
REMARK VINA RESULT:      -7.2     27.142     29.323
REMARK  Name = ZINC000000622956
REMARK                            x       y       z     vdW  Elec       q    Type
REMARK                         _______ _______ _______ _____ _____    ______ ____
ROOT
ATOM      1  C   LIG    1       25.030  42.452 212.283  0.00  0.00    +0.271 C 
ATOM      2  N   LIG    1       24.513  42.551 210.939  0.00  0.00    -0.157 N 
ATOM      3  C   LIG    1       23.846  41.476 210.582  0.00  0.00    +0.250 C 
ATOM      4  C   LIG    1       23.146  41.282 209.245  0.00  0.00    +0.124 C 
ATOM      5  C   LIG    1       21.622  41.329 209.503  0.00  0.00    +0.012 C 
ATOM      6  C   LIG    1       21.148  39.979 210.073  0.00  0.00    +0.004 C 
ATOM      7  C   LIG    1       21.630  39.638 211.499  0.00  0.00    +0.045 C 
ATOM      8  C   LIG    1       23.135  39.304 211.487  0.00  0.00    +0.236 C 
ATOM      9  N   LIG    1       23.842  40.590 211.544  0.00  0.00    -0.258 N 
ATOM     10  C   LIG    1       24.543  41.062 212.757  0.00  0.00    +0.323 C 
ENDROOT
BRANCH   1  11
ATOM     11  C   LIG    1       26.560  42.544 212.307  0.00  0.00    +0.034 A 
ATOM     12  C   LIG    1       27.363  41.513 211.786  0.00  0.00    +0.060 A 
ATOM     13  C   LIG    1       28.741  41.657 211.827  0.00  0.00    +0.167 A 
ATOM     14  O   LIG    1       29.662  40.778 211.379  0.00  0.00    -0.453 OA
ATOM     15  C   LIG    1       30.985  41.402 211.638  0.00  0.00    +0.466 C 
ATOM     16  O   LIG    1       30.678  42.700 212.286  0.00  0.00    -0.453 OA
ATOM     17  C   LIG    1       29.333  42.776 212.353  0.00  0.00    +0.166 A 
ATOM     18  C   LIG    1       28.574  43.814 212.868  0.00  0.00    +0.050 A 
ATOM     19  C   LIG    1       27.184  43.694 212.840  0.00  0.00    +0.014 A 
ENDBRANCH   1  11
BRANCH   2  20
ATOM     20  C   LIG    1       24.637  43.714 210.142  0.00  0.00    +0.124 A 
ATOM     21  C   LIG    1       25.737  43.824 209.293  0.00  0.00    +0.050 A 
ATOM     22  C   LIG    1       25.872  44.965 208.506  0.00  0.00    +0.024 A 
ATOM     23  C   LIG    1       24.912  45.979 208.577  0.00  0.00    +0.041 A 
ATOM     24 CL   LIG    1       25.084  47.395 207.598  0.00  0.00    -0.084 Cl
ATOM     25  C   LIG    1       23.815  45.857 209.436  0.00  0.00    +0.024 A 
ATOM     26  C   LIG    1       23.674  44.719 210.225  0.00  0.00    +0.050 A 
ENDBRANCH   2  20
BRANCH   1  27
ATOM     27  O   LIG    1       24.413  43.491 213.032  0.00  0.00    -0.347 OA
ATOM     28  H   LIG    1       25.066  43.828 213.664  0.00  0.00    +0.215 HD
ENDBRANCH   1  27
TORSDOF 3
ENDMDL
MODEL 9
REMARK VINA RESULT:      -7.2     26.364     28.780
REMARK  Name = ZINC000000622956
REMARK                            x       y       z     vdW  Elec       q    Type
REMARK                         _______ _______ _______ _____ _____    ______ ____
ROOT
ATOM      1  C   LIG    1       37.971  21.454 191.813  0.00  0.00    +0.271 C 
ATOM      2  N   LIG    1       38.367  20.252 192.507  0.00  0.00    -0.157 N 
ATOM      3  C   LIG    1       39.597  20.324 192.965  0.00  0.00    +0.250 C 
ATOM      4  C   LIG    1       40.297  19.240 193.772  0.00  0.00    +0.124 C 
ATOM      5  C   LIG    1       40.437  19.754 195.223  0.00  0.00    +0.012 C 
ATOM      6  C   LIG    1       41.616  20.740 195.315  0.00  0.00    +0.004 C 
ATOM      7  C   LIG    1       41.430  22.091 194.591  0.00  0.00    +0.045 C 
ATOM      8  C   LIG    1       41.490  21.889 193.065  0.00  0.00    +0.236 C 
ATOM      9  N   LIG    1       40.144  21.471 192.652  0.00  0.00    -0.258 N 
ATOM     10  C   LIG    1       39.219  22.363 191.921  0.00  0.00    +0.323 C 
ENDROOT
BRANCH   1  11
ATOM     11  C   LIG    1       37.615  21.169 190.349  0.00  0.00    +0.034 A 
ATOM     12  C   LIG    1       36.289  20.913 189.956  0.00  0.00    +0.060 A 
ATOM     13  C   LIG    1       36.027  20.672 188.616  0.00  0.00    +0.167 A 
ATOM     14  O   LIG    1       34.825  20.409 188.059  0.00  0.00    -0.453 OA
ATOM     15  C   LIG    1       35.075  20.243 186.604  0.00  0.00    +0.466 C 
ATOM     16  O   LIG    1       36.538  20.428 186.441  0.00  0.00    -0.453 OA
ATOM     17  C   LIG    1       37.022  20.684 187.674  0.00  0.00    +0.166 A 
ATOM     18  C   LIG    1       38.337  20.940 188.023  0.00  0.00    +0.050 A 
ATOM     19  C   LIG    1       38.629  21.185 189.366  0.00  0.00    +0.014 A 
ENDBRANCH   1  11
BRANCH   2  20
ATOM     20  C   LIG    1       37.490  19.166 192.742  0.00  0.00    +0.124 A 
ATOM     21  C   LIG    1       37.491  18.103 191.840  0.00  0.00    +0.050 A 
ATOM     22  C   LIG    1       36.631  17.030 192.058  0.00  0.00    +0.024 A 
ATOM     23  C   LIG    1       35.783  17.032 193.170  0.00  0.00    +0.041 A 
ATOM     24 CL   LIG    1       34.715  15.697 193.437  0.00  0.00    -0.084 Cl
ATOM     25  C   LIG    1       35.790  18.106 194.065  0.00  0.00    +0.024 A 
ATOM     26  C   LIG    1       36.647  19.182 193.852  0.00  0.00    +0.050 A 
ENDBRANCH   2  20
BRANCH   1  27
ATOM     27  O   LIG    1       36.878  22.001 192.539  0.00  0.00    -0.347 OA
ATOM     28  H   LIG    1       37.166  22.847 192.914  0.00  0.00    +0.215 HD
ENDBRANCH   1  27
TORSDOF 3
ENDMDL
