REMARK VINA RESULT:      -6.4     24.560     26.585
REMARK  Name = ZINC000070728784
REMARK                            x       y       z     vdW  Elec       q    Type
REMARK                         _______ _______ _______ _____ _____    ______ ____
ROOT
ATOM      1  C   LIG    1       18.629  39.662 208.258  0.00  0.00    +0.251 C 
ATOM      2  N   LIG    1       19.496  39.743 209.324  0.00  0.00    -0.261 N 
ATOM      3  H   LIG    1       19.331  39.067 210.080  0.00  0.00    +0.157 HD
ATOM      4  O   LIG    1       18.882  40.281 207.232  0.00  0.00    -0.270 OA
ENDROOT
BRANCH   1   6
ATOM      5  C   LIG    1       16.205  39.353 208.920  0.00  0.00    +0.020 A 
ATOM      6  C   LIG    1       17.426  38.851 208.400  0.00  0.00    +0.050 A 
ATOM      7  C   LIG    1       17.474  37.511 207.985  0.00  0.00    +0.014 A 
ATOM      8  C   LIG    1       16.346  36.704 208.023  0.00  0.00    +0.001 A 
ATOM      9  C   LIG    1       15.138  37.223 208.484  0.00  0.00    +0.001 A 
ATOM     10  C   LIG    1       15.067  38.535 208.927  0.00  0.00    +0.015 A 
BRANCH   5  11
ATOM     11  S   LIG    1       16.024  40.957 209.590  0.00  0.00    -0.122 S 
BRANCH  11  13
ATOM     12  C   LIG    1       17.580  41.651 211.671  0.00  0.00    +0.019 C 
ATOM     13  C   LIG    1       16.408  40.720 211.361  0.00  0.00    +0.045 C 
ATOM     14  C   LIG    1       15.149  41.122 212.129  0.00  0.00    +0.019 C 
ENDBRANCH  11  13
ENDBRANCH   5  11
ENDBRANCH   1   6
BRANCH   2  15
ATOM     15  C   LIG    1       20.609  40.579 209.474  0.00  0.00    +0.165 A 
ATOM     16  S   LIG    1       22.150  39.814 209.580  0.00  0.00    -0.060 S 
ATOM     17  C   LIG    1       22.832  41.376 209.755  0.00  0.00    +0.073 A 
ATOM     18  C   LIG    1       21.871  42.339 209.725  0.00  0.00    +0.064 A 
ATOM     19  N   LIG    1       20.595  41.878 209.565  0.00  0.00    -0.228 NA
BRANCH  18  20
ATOM     20  C   LIG    1       22.154  43.825 209.853  0.00  0.00    +0.140 C 
BRANCH  20  21
ATOM     21  N   LIG    1       23.607  44.041 209.576  0.00  0.00    -0.292 NA
ATOM     22  C   LIG    1       24.238  45.089 210.444  0.00  0.00    +0.113 C 
ATOM     23  C   LIG    1       23.711  46.489 210.040  0.00  0.00    +0.175 C 
ATOM     24  O   LIG    1       24.028  46.685 208.661  0.00  0.00    -0.377 OA
ATOM     25  C   LIG    1       23.352  45.765 207.807  0.00  0.00    +0.175 C 
ATOM     26  C   LIG    1       23.873  44.345 208.142  0.00  0.00    +0.113 C 
ENDBRANCH  20  21
ENDBRANCH  18  20
ENDBRANCH   2  15
TORSDOF 6
