REMARK VINA RESULT:      -8.8     29.233     30.646
REMARK  Name = ZINC000006083766
REMARK                            x       y       z     vdW  Elec       q    Type
REMARK                         _______ _______ _______ _____ _____    ______ ____
ROOT
ATOM      1  O   LIG    1       22.502  44.737 186.459  0.00  0.00    -0.468 OA
ENDROOT
BRANCH   1   2
ATOM      2  C   LIG    1       23.213  44.022 187.367  0.00  0.00    +0.227 A 
ATOM      3  C   LIG    1       22.954  44.182 188.739  0.00  0.00    +0.073 A 
ATOM      4  C   LIG    1       22.031  45.001 189.451  0.00  0.00    -0.023 A 
ATOM      5  C   LIG    1       21.046  45.962 188.800  0.00  0.00    +0.037 C 
ATOM      6  C   LIG    1       20.012  46.391 189.857  0.00  0.00    +0.005 C 
ATOM      7  C   LIG    1       20.682  46.789 191.183  0.00  0.00    +0.005 C 
ATOM      8  C   LIG    1       21.332  45.571 191.860  0.00  0.00    +0.043 C 
ATOM      9  C   LIG    1       22.149  44.858 190.803  0.00  0.00    -0.004 A 
ATOM     10  S   LIG    1       23.366  43.704 191.251  0.00  0.00    -0.073 S 
ATOM     11  C   LIG    1       23.741  43.419 189.587  0.00  0.00    +0.116 A 
ATOM     12  N   LIG    1       24.690  42.565 189.134  0.00  0.00    -0.228 NA
ATOM     13  C   LIG    1       24.853  42.483 187.836  0.00  0.00    +0.226 A 
ATOM     14  N   LIG    1       24.136  43.196 186.926  0.00  0.00    -0.201 NA
ENDBRANCH   1   2
BRANCH   1  15
ATOM     15  C   LIG    1       22.994  45.013 185.116  0.00  0.00    +0.310 C 
BRANCH  15  17
ATOM     16  O   LIG    1       21.237  45.042 183.522  0.00  0.00    -0.288 OA
ATOM     17  C   LIG    1       21.888  45.695 184.316  0.00  0.00    +0.200 C 
BRANCH  17  18
ATOM     18  C   LIG    1       21.582  47.108 184.538  0.00  0.00    +0.025 A 
ATOM     19  C   LIG    1       20.283  47.538 184.877  0.00  0.00    +0.061 A 
ATOM     20  C   LIG    1       20.031  48.886 185.080  0.00  0.00    +0.163 A 
ATOM     21  O   LIG    1       18.762  49.290 185.437  0.00  0.00    -0.485 OA
ATOM     22  C   LIG    1       18.602  50.632 185.993  0.00  0.00    +0.270 C 
ATOM     23  C   LIG    1       19.378  51.593 185.078  0.00  0.00    +0.270 C 
ATOM     24  O   LIG    1       20.774  51.168 185.102  0.00  0.00    -0.485 OA
ATOM     25  C   LIG    1       21.050  49.833 184.933  0.00  0.00    +0.162 A 
ATOM     26  C   LIG    1       22.339  49.430 184.608  0.00  0.00    +0.050 A 
ATOM     27  C   LIG    1       22.600  48.077 184.410  0.00  0.00    +0.015 A 
ENDBRANCH  17  18
ENDBRANCH  15  17
ENDBRANCH   1  15
TORSDOF 4
