MODEL 1
REMARK VINA RESULT:      -7.8      0.000      0.000
REMARK  Name = ZINC000000608130
REMARK                            x       y       z     vdW  Elec       q    Type
REMARK                         _______ _______ _______ _____ _____    ______ ____
ROOT
ATOM      1  C   LIG    1       23.545  43.114 182.770  0.00  0.00    +0.264 C 
ATOM      2  C   LIG    1       24.981  42.532 182.671  0.00  0.00    +0.145 C 
ATOM      3  C   LIG    1       26.111  43.543 182.403  0.00  0.00    +0.059 C 
ATOM      4  C   LIG    1       25.015  41.506 181.528  0.00  0.00    +0.059 C 
ATOM      5  O   LIG    1       25.291  41.821 183.887  0.00  0.00    -0.482 OA
ATOM      6  C   LIG    1       24.855  42.234 185.116  0.00  0.00    +0.132 A 
ATOM      7  C   LIG    1       25.371  41.569 186.232  0.00  0.00    +0.047 A 
ATOM      8  C   LIG    1       24.971  41.945 187.506  0.00  0.00    +0.015 A 
ATOM      9  C   LIG    1       24.052  42.990 187.677  0.00  0.00    +0.018 A 
ATOM     10  C   LIG    1       23.548  43.639 186.534  0.00  0.00    +0.149 A 
ATOM     11  O   LIG    1       22.647  44.679 186.693  0.00  0.00    -0.422 OA
ATOM     12  C   LIG    1       22.228  45.113 187.910  0.00  0.00    +0.337 A 
ATOM     13  O   LIG    1       21.444  46.048 187.936  0.00  0.00    -0.245 OA
ATOM     14  C   LIG    1       22.732  44.448 189.083  0.00  0.00    +0.092 A 
ATOM     15  C   LIG    1       23.613  43.421 188.978  0.00  0.00    +0.018 A 
ATOM     16  C   LIG    1       23.929  43.270 185.242  0.00  0.00    +0.081 A 
ATOM     17  C   LIG    1       23.365  43.998 184.033  0.00  0.00    +0.258 C 
ENDROOT
BRANCH   1  18
ATOM     18  O   LIG    1       23.248  43.905 181.563  0.00  0.00    -0.453 OA
BRANCH  18  19
ATOM     19  C   LIG    1       22.025  43.855 181.006  0.00  0.00    +0.310 C 
ATOM     20  O   LIG    1       21.136  44.604 181.407  0.00  0.00    -0.251 OA
BRANCH  19  21
ATOM     21  C   LIG    1       21.741  42.788 179.936  0.00  0.00    +0.094 C 
ATOM     22  C   LIG    1       20.645  43.253 178.955  0.00  0.00    +0.019 C 
BRANCH  21  24
ATOM     23  C   LIG    1       21.677  40.214 179.686  0.00  0.00    +0.004 C 
ATOM     24  C   LIG    1       21.397  41.431 180.583  0.00  0.00    +0.011 C 
ENDBRANCH  21  24
ENDBRANCH  19  21
ENDBRANCH  18  19
ENDBRANCH   1  18
BRANCH  17  25
ATOM     25  O   LIG    1       24.127  45.234 183.908  0.00  0.00    -0.453 OA
BRANCH  25  26
ATOM     26  C   LIG    1       23.523  46.419 183.834  0.00  0.00    +0.305 C 
ATOM     27  O   LIG    1       24.163  47.456 183.701  0.00  0.00    -0.251 OA
ATOM     28  C   LIG    1       22.013  46.446 183.946  0.00  0.00    +0.136 C 
ENDBRANCH  25  26
ENDBRANCH  17  25
TORSDOF 6
ENDMDL
MODEL 2
REMARK VINA RESULT:      -7.4     28.445     31.033
REMARK  Name = ZINC000000608130
REMARK                            x       y       z     vdW  Elec       q    Type
REMARK                         _______ _______ _______ _____ _____    ______ ____
ROOT
ATOM      1  C   LIG    1       28.658  15.619 197.470  0.00  0.00    +0.264 C 
ATOM      2  C   LIG    1       28.060  16.305 198.729  0.00  0.00    +0.145 C 
ATOM      3  C   LIG    1       28.111  17.843 198.759  0.00  0.00    +0.059 C 
ATOM      4  C   LIG    1       28.822  15.806 199.966  0.00  0.00    +0.059 C 
ATOM      5  O   LIG    1       26.686  15.897 198.886  0.00  0.00    -0.482 OA
ATOM      6  C   LIG    1       25.853  15.682 197.822  0.00  0.00    +0.132 A 
ATOM      7  C   LIG    1       24.501  15.469 198.104  0.00  0.00    +0.047 A 
ATOM      8  C   LIG    1       23.605  15.250 197.067  0.00  0.00    +0.015 A 
ATOM      9  C   LIG    1       24.053  15.242 195.738  0.00  0.00    +0.018 A 
ATOM     10  C   LIG    1       25.421  15.457 195.486  0.00  0.00    +0.149 A 
ATOM     11  O   LIG    1       25.871  15.461 194.177  0.00  0.00    -0.422 OA
ATOM     12  C   LIG    1       25.047  15.273 193.112  0.00  0.00    +0.337 A 
ATOM     13  O   LIG    1       25.547  15.312 192.000  0.00  0.00    -0.245 OA
ATOM     14  C   LIG    1       23.648  15.045 193.363  0.00  0.00    +0.092 A 
ATOM     15  C   LIG    1       23.161  15.028 194.630  0.00  0.00    +0.018 A 
ATOM     16  C   LIG    1       26.341  15.669 196.515  0.00  0.00    +0.081 A 
ATOM     17  C   LIG    1       27.811  15.900 196.201  0.00  0.00    +0.258 C 
ENDROOT
BRANCH   1  18
ATOM     18  O   LIG    1       30.039  16.089 197.261  0.00  0.00    -0.453 OA
BRANCH  18  19
ATOM     19  C   LIG    1       31.005  15.217 196.923  0.00  0.00    +0.310 C 
ATOM     20  O   LIG    1       30.959  14.059 197.335  0.00  0.00    -0.251 OA
BRANCH  19  21
ATOM     21  C   LIG    1       32.202  15.718 196.098  0.00  0.00    +0.094 C 
ATOM     22  C   LIG    1       32.284  17.259 196.106  0.00  0.00    +0.019 C 
BRANCH  21  24
ATOM     23  C   LIG    1       33.369  15.546 193.797  0.00  0.00    +0.004 C 
ATOM     24  C   LIG    1       32.164  15.151 194.664  0.00  0.00    +0.011 C 
ENDBRANCH  21  24
ENDBRANCH  19  21
ENDBRANCH  18  19
ENDBRANCH   1  18
BRANCH  17  25
ATOM     25  O   LIG    1       27.929  17.297 195.804  0.00  0.00    -0.453 OA
BRANCH  25  26
ATOM     26  C   LIG    1       28.502  17.647 194.654  0.00  0.00    +0.305 C 
ATOM     27  O   LIG    1       28.582  18.821 194.310  0.00  0.00    -0.251 OA
ATOM     28  C   LIG    1       29.033  16.540 193.768  0.00  0.00    +0.136 C 
ENDBRANCH  25  26
ENDBRANCH  17  25
TORSDOF 6
ENDMDL
MODEL 3
REMARK VINA RESULT:      -7.1     25.070     28.209
REMARK  Name = ZINC000000608130
REMARK                            x       y       z     vdW  Elec       q    Type
REMARK                         _______ _______ _______ _____ _____    ______ ____
ROOT
ATOM      1  C   LIG    1       18.211  37.799 211.612  0.00  0.00    +0.264 C 
ATOM      2  C   LIG    1       17.097  38.121 212.646  0.00  0.00    +0.145 C 
ATOM      3  C   LIG    1       16.126  39.256 212.273  0.00  0.00    +0.059 C 
ATOM      4  C   LIG    1       17.761  38.515 213.974  0.00  0.00    +0.059 C 
ATOM      5  O   LIG    1       16.323  36.931 212.897  0.00  0.00    -0.482 OA
ATOM      6  C   LIG    1       16.040  36.013 211.923  0.00  0.00    +0.132 A 
ATOM      7  C   LIG    1       15.133  35.001 212.244  0.00  0.00    +0.047 A 
ATOM      8  C   LIG    1       14.801  34.042 211.297  0.00  0.00    +0.015 A 
ATOM      9  C   LIG    1       15.375  34.089 210.018  0.00  0.00    +0.018 A 
ATOM     10  C   LIG    1       16.288  35.119 209.724  0.00  0.00    +0.149 A 
ATOM     11  O   LIG    1       16.852  35.179 208.461  0.00  0.00    -0.422 OA
ATOM     12  C   LIG    1       16.558  34.286 207.479  0.00  0.00    +0.337 A 
ATOM     13  O   LIG    1       17.101  34.442 206.397  0.00  0.00    -0.245 OA
ATOM     14  C   LIG    1       15.632  33.225 207.775  0.00  0.00    +0.092 A 
ATOM     15  C   LIG    1       15.057  33.123 209.000  0.00  0.00    +0.018 A 
ATOM     16  C   LIG    1       16.643  36.087 210.666  0.00  0.00    +0.081 A 
ATOM     17  C   LIG    1       17.631  37.186 210.310  0.00  0.00    +0.258 C 
ENDROOT
BRANCH   1  18
ATOM     18  O   LIG    1       18.959  39.028 211.293  0.00  0.00    -0.453 OA
BRANCH  18  19
ATOM     19  C   LIG    1       20.302  39.035 211.354  0.00  0.00    +0.310 C 
ATOM     20  O   LIG    1       20.911  37.999 211.617  0.00  0.00    -0.251 OA
BRANCH  19  21
ATOM     21  C   LIG    1       21.045  40.370 211.181  0.00  0.00    +0.094 C 
ATOM     22  C   LIG    1       20.065  41.561 211.163  0.00  0.00    +0.019 C 
BRANCH  21  24
ATOM     23  C   LIG    1       21.176  40.333 208.598  0.00  0.00    +0.004 C 
ATOM     24  C   LIG    1       21.945  40.346 209.928  0.00  0.00    +0.011 C 
ENDBRANCH  21  24
ENDBRANCH  19  21
ENDBRANCH  18  19
ENDBRANCH   1  18
BRANCH  17  25
ATOM     25  O   LIG    1       16.878  38.185 209.563  0.00  0.00    -0.453 OA
BRANCH  25  26
ATOM     26  C   LIG    1       17.442  38.894 208.586  0.00  0.00    +0.305 C 
ATOM     27  O   LIG    1       17.977  38.350 207.626  0.00  0.00    -0.251 OA
ATOM     28  C   LIG    1       17.423  40.403 208.713  0.00  0.00    +0.136 C 
ENDBRANCH  25  26
ENDBRANCH  17  25
TORSDOF 6
ENDMDL
MODEL 4
REMARK VINA RESULT:      -6.9      2.285      3.750
REMARK  Name = ZINC000000608130
REMARK                            x       y       z     vdW  Elec       q    Type
REMARK                         _______ _______ _______ _____ _____    ______ ____
ROOT
ATOM      1  C   LIG    1       23.248  44.986 181.672  0.00  0.00    +0.264 C 
ATOM      2  C   LIG    1       24.618  45.341 181.032  0.00  0.00    +0.145 C 
ATOM      3  C   LIG    1       25.271  46.655 181.497  0.00  0.00    +0.059 C 
ATOM      4  C   LIG    1       24.435  45.444 179.510  0.00  0.00    +0.059 C 
ATOM      5  O   LIG    1       25.548  44.266 181.273  0.00  0.00    -0.482 OA
ATOM      6  C   LIG    1       25.556  43.542 182.434  0.00  0.00    +0.132 A 
ATOM      7  C   LIG    1       26.617  42.653 182.624  0.00  0.00    +0.047 A 
ATOM      8  C   LIG    1       26.685  41.894 183.784  0.00  0.00    +0.015 A 
ATOM      9  C   LIG    1       25.691  42.018 184.765  0.00  0.00    +0.018 A 
ATOM     10  C   LIG    1       24.633  42.920 184.545  0.00  0.00    +0.149 A 
ATOM     11  O   LIG    1       23.652  43.057 185.513  0.00  0.00    -0.422 OA
ATOM     12  C   LIG    1       23.666  42.361 186.680  0.00  0.00    +0.337 A 
ATOM     13  O   LIG    1       22.760  42.571 187.471  0.00  0.00    -0.245 OA
ATOM     14  C   LIG    1       24.740  41.430 186.909  0.00  0.00    +0.092 A 
ATOM     15  C   LIG    1       25.722  41.259 185.988  0.00  0.00    +0.018 A 
ATOM     16  C   LIG    1       24.541  43.686 183.381  0.00  0.00    +0.081 A 
ATOM     17  C   LIG    1       23.384  44.652 183.181  0.00  0.00    +0.258 C 
ENDROOT
BRANCH   1  18
ATOM     18  O   LIG    1       22.314  46.112 181.494  0.00  0.00    -0.453 OA
BRANCH  18  19
ATOM     19  C   LIG    1       21.116  45.911 180.918  0.00  0.00    +0.310 C 
ATOM     20  O   LIG    1       20.858  44.827 180.398  0.00  0.00    -0.251 OA
BRANCH  19  21
ATOM     21  C   LIG    1       20.122  47.083 180.844  0.00  0.00    +0.094 C 
ATOM     22  C   LIG    1       20.391  47.970 179.611  0.00  0.00    +0.019 C 
BRANCH  21  24
ATOM     23  C   LIG    1       18.761  48.491 182.533  0.00  0.00    +0.004 C 
ATOM     24  C   LIG    1       20.127  47.898 182.153  0.00  0.00    +0.011 C 
ENDBRANCH  21  24
ENDBRANCH  19  21
ENDBRANCH  18  19
ENDBRANCH   1  18
BRANCH  17  25
ATOM     25  O   LIG    1       23.714  45.848 183.945  0.00  0.00    -0.453 OA
BRANCH  25  26
ATOM     26  C   LIG    1       22.798  46.483 184.674  0.00  0.00    +0.305 C 
ATOM     27  O   LIG    1       21.890  45.877 185.232  0.00  0.00    -0.251 OA
ATOM     28  C   LIG    1       22.900  47.991 184.769  0.00  0.00    +0.136 C 
ENDBRANCH  25  26
ENDBRANCH  17  25
TORSDOF 6
ENDMDL
MODEL 5
REMARK VINA RESULT:      -6.8     29.432     30.650
REMARK  Name = ZINC000000608130
REMARK                            x       y       z     vdW  Elec       q    Type
REMARK                         _______ _______ _______ _____ _____    ______ ____
ROOT
ATOM      1  C   LIG    1       28.576  17.083 197.136  0.00  0.00    +0.264 C 
ATOM      2  C   LIG    1       28.379  17.283 198.663  0.00  0.00    +0.145 C 
ATOM      3  C   LIG    1       28.676  16.064 199.556  0.00  0.00    +0.059 C 
ATOM      4  C   LIG    1       26.918  17.683 198.920  0.00  0.00    +0.059 C 
ATOM      5  O   LIG    1       29.202  18.380 199.110  0.00  0.00    -0.482 OA
ATOM      6  C   LIG    1       30.441  18.633 198.590  0.00  0.00    +0.132 A 
ATOM      7  C   LIG    1       31.213  19.607 199.228  0.00  0.00    +0.047 A 
ATOM      8  C   LIG    1       32.482  19.907 198.751  0.00  0.00    +0.015 A 
ATOM      9  C   LIG    1       32.990  19.233 197.631  0.00  0.00    +0.018 A 
ATOM     10  C   LIG    1       32.188  18.258 197.008  0.00  0.00    +0.149 A 
ATOM     11  O   LIG    1       32.685  17.581 195.907  0.00  0.00    -0.422 OA
ATOM     12  C   LIG    1       33.925  17.808 195.399  0.00  0.00    +0.337 A 
ATOM     13  O   LIG    1       34.269  17.143 194.436  0.00  0.00    -0.245 OA
ATOM     14  C   LIG    1       34.748  18.809 196.026  0.00  0.00    +0.092 A 
ATOM     15  C   LIG    1       34.302  19.502 197.105  0.00  0.00    +0.018 A 
ATOM     16  C   LIG    1       30.905  17.950 197.465  0.00  0.00    +0.081 A 
ATOM     17  C   LIG    1       30.071  16.888 196.767  0.00  0.00    +0.258 C 
ENDROOT
BRANCH   1  18
ATOM     18  O   LIG    1       27.796  15.916 196.685  0.00  0.00    -0.453 OA
BRANCH  18  19
ATOM     19  C   LIG    1       27.088  15.978 195.545  0.00  0.00    +0.310 C 
ATOM     20  O   LIG    1       27.453  16.719 194.633  0.00  0.00    -0.251 OA
BRANCH  19  21
ATOM     21  C   LIG    1       25.775  15.183 195.443  0.00  0.00    +0.094 C 
ATOM     22  C   LIG    1       25.094  15.394 194.075  0.00  0.00    +0.019 C 
BRANCH  21  24
ATOM     23  C   LIG    1       23.348  15.611 196.225  0.00  0.00    +0.004 C 
ATOM     24  C   LIG    1       24.831  15.518 196.615  0.00  0.00    +0.011 C 
ENDBRANCH  21  24
ENDBRANCH  19  21
ENDBRANCH  18  19
ENDBRANCH   1  18
BRANCH  17  25
ATOM     25  O   LIG    1       30.556  15.603 197.251  0.00  0.00    -0.453 OA
BRANCH  25  26
ATOM     26  C   LIG    1       31.094  14.706 196.426  0.00  0.00    +0.305 C 
ATOM     27  O   LIG    1       31.864  13.842 196.832  0.00  0.00    -0.251 OA
ATOM     28  C   LIG    1       30.742  14.804 194.957  0.00  0.00    +0.136 C 
ENDBRANCH  25  26
ENDBRANCH  17  25
TORSDOF 6
ENDMDL
MODEL 6
REMARK VINA RESULT:      -6.8     28.325     30.266
REMARK  Name = ZINC000000608130
REMARK                            x       y       z     vdW  Elec       q    Type
REMARK                         _______ _______ _______ _____ _____    ______ ____
ROOT
ATOM      1  C   LIG    1       29.052  16.601 196.623  0.00  0.00    +0.264 C 
ATOM      2  C   LIG    1       29.690  17.333 195.411  0.00  0.00    +0.145 C 
ATOM      3  C   LIG    1       29.019  18.649 194.976  0.00  0.00    +0.059 C 
ATOM      4  C   LIG    1       29.661  16.391 194.199  0.00  0.00    +0.059 C 
ATOM      5  O   LIG    1       31.077  17.608 195.699  0.00  0.00    -0.482 OA
ATOM      6  C   LIG    1       31.520  17.941 196.949  0.00  0.00    +0.132 A 
ATOM      7  C   LIG    1       32.848  18.361 197.064  0.00  0.00    +0.047 A 
ATOM      8  C   LIG    1       33.356  18.717 198.305  0.00  0.00    +0.015 A 
ATOM      9  C   LIG    1       32.540  18.656 199.444  0.00  0.00    +0.018 A 
ATOM     10  C   LIG    1       31.207  18.226 199.298  0.00  0.00    +0.149 A 
ATOM     11  O   LIG    1       30.391  18.171 200.415  0.00  0.00    -0.422 OA
ATOM     12  C   LIG    1       30.816  18.524 201.657  0.00  0.00    +0.337 A 
ATOM     13  O   LIG    1       30.008  18.453 202.569  0.00  0.00    -0.245 OA
ATOM     14  C   LIG    1       32.180  18.956 201.816  0.00  0.00    +0.092 A 
ATOM     15  C   LIG    1       33.019  19.022 200.751  0.00  0.00    +0.018 A 
ATOM     16  C   LIG    1       30.680  17.853 198.060  0.00  0.00    +0.081 A 
ATOM     17  C   LIG    1       29.234  17.397 197.942  0.00  0.00    +0.258 C 
ENDROOT
BRANCH   1  18
ATOM     18  O   LIG    1       27.617  16.382 196.368  0.00  0.00    -0.453 OA
BRANCH  18  19
ATOM     19  C   LIG    1       27.127  15.133 196.295  0.00  0.00    +0.310 C 
ATOM     20  O   LIG    1       27.833  14.176 196.610  0.00  0.00    -0.251 OA
BRANCH  19  21
ATOM     21  C   LIG    1       25.713  14.922 195.726  0.00  0.00    +0.094 C 
ATOM     22  C   LIG    1       25.568  15.561 194.329  0.00  0.00    +0.019 C 
BRANCH  21  24
ATOM     23  C   LIG    1       23.224  15.506 196.113  0.00  0.00    +0.004 C 
ATOM     24  C   LIG    1       24.639  15.434 196.708  0.00  0.00    +0.011 C 
ENDBRANCH  21  24
ENDBRANCH  19  21
ENDBRANCH  18  19
ENDBRANCH   1  18
BRANCH  17  25
ATOM     25  O   LIG    1       28.424  18.608 197.927  0.00  0.00    -0.453 OA
BRANCH  25  26
ATOM     26  C   LIG    1       27.593  18.902 198.926  0.00  0.00    +0.305 C 
ATOM     27  O   LIG    1       26.820  18.067 199.383  0.00  0.00    -0.251 OA
ATOM     28  C   LIG    1       27.616  20.318 199.464  0.00  0.00    +0.136 C 
ENDBRANCH  25  26
ENDBRANCH  17  25
TORSDOF 6
ENDMDL
MODEL 7
REMARK VINA RESULT:      -6.7      3.469      7.714
REMARK  Name = ZINC000000608130
REMARK                            x       y       z     vdW  Elec       q    Type
REMARK                         _______ _______ _______ _____ _____    ______ ____
ROOT
ATOM      1  C   LIG    1       19.834  47.988 183.103  0.00  0.00    +0.264 C 
ATOM      2  C   LIG    1       19.696  48.846 181.816  0.00  0.00    +0.145 C 
ATOM      3  C   LIG    1       20.849  49.822 181.518  0.00  0.00    +0.059 C 
ATOM      4  C   LIG    1       18.413  49.685 181.924  0.00  0.00    +0.059 C 
ATOM      5  O   LIG    1       19.537  47.975 180.678  0.00  0.00    -0.482 OA
ATOM      6  C   LIG    1       20.178  46.771 180.574  0.00  0.00    +0.132 A 
ATOM      7  C   LIG    1       20.088  46.105 179.349  0.00  0.00    +0.047 A 
ATOM      8  C   LIG    1       20.721  44.881 179.180  0.00  0.00    +0.015 A 
ATOM      9  C   LIG    1       21.450  44.313 180.234  0.00  0.00    +0.018 A 
ATOM     10  C   LIG    1       21.521  45.006 181.457  0.00  0.00    +0.149 A 
ATOM     11  O   LIG    1       22.247  44.458 182.501  0.00  0.00    -0.422 OA
ATOM     12  C   LIG    1       22.907  43.275 182.398  0.00  0.00    +0.337 A 
ATOM     13  O   LIG    1       23.530  42.892 183.376  0.00  0.00    -0.245 OA
ATOM     14  C   LIG    1       22.833  42.556 181.153  0.00  0.00    +0.092 A 
ATOM     15  C   LIG    1       22.130  43.051 180.103  0.00  0.00    +0.018 A 
ATOM     16  C   LIG    1       20.883  46.233 181.652  0.00  0.00    +0.081 A 
ATOM     17  C   LIG    1       20.985  46.953 182.987  0.00  0.00    +0.258 C 
ENDROOT
BRANCH   1  18
ATOM     18  O   LIG    1       20.072  48.868 184.261  0.00  0.00    -0.453 OA
BRANCH  18  19
ATOM     19  C   LIG    1       19.225  48.854 185.305  0.00  0.00    +0.310 C 
ATOM     20  O   LIG    1       18.563  47.845 185.545  0.00  0.00    -0.251 OA
BRANCH  19  21
ATOM     21  C   LIG    1       19.037  50.141 186.126  0.00  0.00    +0.094 C 
ATOM     22  C   LIG    1       18.054  49.924 187.295  0.00  0.00    +0.019 C 
BRANCH  21  24
ATOM     23  C   LIG    1       19.779  52.125 184.643  0.00  0.00    +0.004 C 
ATOM     24  C   LIG    1       18.609  51.316 185.223  0.00  0.00    +0.011 C 
ENDBRANCH  21  24
ENDBRANCH  19  21
ENDBRANCH  18  19
ENDBRANCH   1  18
BRANCH  17  25
ATOM     25  O   LIG    1       22.280  47.622 182.993  0.00  0.00    -0.453 OA
BRANCH  25  26
ATOM     26  C   LIG    1       23.057  47.624 184.074  0.00  0.00    +0.305 C 
ATOM     27  O   LIG    1       23.300  46.593 184.691  0.00  0.00    -0.251 OA
ATOM     28  C   LIG    1       23.614  48.955 184.535  0.00  0.00    +0.136 C 
ENDBRANCH  25  26
ENDBRANCH  17  25
TORSDOF 6
ENDMDL
MODEL 8
REMARK VINA RESULT:      -6.6     23.856     27.696
REMARK  Name = ZINC000000608130
REMARK                            x       y       z     vdW  Elec       q    Type
REMARK                         _______ _______ _______ _____ _____    ______ ____
ROOT
ATOM      1  C   LIG    1       24.222  47.826 210.408  0.00  0.00    +0.264 C 
ATOM      2  C   LIG    1       24.010  46.903 211.639  0.00  0.00    +0.145 C 
ATOM      3  C   LIG    1       25.252  46.617 212.501  0.00  0.00    +0.059 C 
ATOM      4  C   LIG    1       23.481  45.547 211.148  0.00  0.00    +0.059 C 
ATOM      5  O   LIG    1       22.992  47.471 212.489  0.00  0.00    -0.482 OA
ATOM      6  C   LIG    1       22.850  48.819 212.672  0.00  0.00    +0.132 A 
ATOM      7  C   LIG    1       21.951  49.237 213.657  0.00  0.00    +0.047 A 
ATOM      8  C   LIG    1       21.766  50.592 213.894  0.00  0.00    +0.015 A 
ATOM      9  C   LIG    1       22.480  51.541 213.148  0.00  0.00    +0.018 A 
ATOM     10  C   LIG    1       23.376  51.090 212.161  0.00  0.00    +0.149 A 
ATOM     11  O   LIG    1       24.093  52.019 211.427  0.00  0.00    -0.422 OA
ATOM     12  C   LIG    1       23.977  53.360 211.620  0.00  0.00    +0.337 A 
ATOM     13  O   LIG    1       24.668  54.090 210.927  0.00  0.00    -0.245 OA
ATOM     14  C   LIG    1       23.055  53.829 212.621  0.00  0.00    +0.092 A 
ATOM     15  C   LIG    1       22.328  52.956 213.363  0.00  0.00    +0.018 A 
ATOM     16  C   LIG    1       23.570  49.732 211.900  0.00  0.00    +0.081 A 
ATOM     17  C   LIG    1       24.549  49.283 210.828  0.00  0.00    +0.258 C 
ENDROOT
BRANCH   1  18
ATOM     18  O   LIG    1       25.312  47.292 209.572  0.00  0.00    -0.453 OA
BRANCH  18  19
ATOM     19  C   LIG    1       25.161  47.204 208.239  0.00  0.00    +0.310 C 
ATOM     20  O   LIG    1       25.174  48.224 207.551  0.00  0.00    -0.251 OA
BRANCH  19  21
ATOM     21  C   LIG    1       24.879  45.828 207.614  0.00  0.00    +0.094 C 
ATOM     22  C   LIG    1       23.363  45.562 207.499  0.00  0.00    +0.019 C 
BRANCH  21  24
ATOM     23  C   LIG    1       24.858  43.365 208.401  0.00  0.00    +0.004 C 
ATOM     24  C   LIG    1       25.603  44.708 208.389  0.00  0.00    +0.011 C 
ENDBRANCH  21  24
ENDBRANCH  19  21
ENDBRANCH  18  19
ENDBRANCH   1  18
BRANCH  17  25
ATOM     25  O   LIG    1       25.875  49.359 211.428  0.00  0.00    -0.453 OA
BRANCH  25  26
ATOM     26  C   LIG    1       26.854  50.067 210.867  0.00  0.00    +0.305 C 
ATOM     27  O   LIG    1       26.850  50.329 209.669  0.00  0.00    -0.251 OA
ATOM     28  C   LIG    1       27.993  50.519 211.758  0.00  0.00    +0.136 C 
ENDBRANCH  25  26
ENDBRANCH  17  25
TORSDOF 6
ENDMDL
MODEL 9
REMARK VINA RESULT:      -6.5     27.624     30.533
REMARK  Name = ZINC000000608130
REMARK                            x       y       z     vdW  Elec       q    Type
REMARK                         _______ _______ _______ _____ _____    ______ ____
ROOT
ATOM      1  C   LIG    1       30.016  18.798 197.207  0.00  0.00    +0.264 C 
ATOM      2  C   LIG    1       29.470  19.536 198.459  0.00  0.00    +0.145 C 
ATOM      3  C   LIG    1       28.788  18.661 199.526  0.00  0.00    +0.059 C 
ATOM      4  C   LIG    1       28.435  20.576 198.002  0.00  0.00    +0.059 C 
ATOM      5  O   LIG    1       30.545  20.261 199.091  0.00  0.00    -0.482 OA
ATOM      6  C   LIG    1       31.827  19.785 199.141  0.00  0.00    +0.132 A 
ATOM      7  C   LIG    1       32.736  20.488 199.936  0.00  0.00    +0.047 A 
ATOM      8  C   LIG    1       34.051  20.053 200.032  0.00  0.00    +0.015 A 
ATOM      9  C   LIG    1       34.467  18.910 199.334  0.00  0.00    +0.018 A 
ATOM     10  C   LIG    1       33.529  18.225 198.539  0.00  0.00    +0.149 A 
ATOM     11  O   LIG    1       33.928  17.090 197.854  0.00  0.00    -0.422 OA
ATOM     12  C   LIG    1       35.193  16.596 197.918  0.00  0.00    +0.337 A 
ATOM     13  O   LIG    1       35.433  15.580 197.286  0.00  0.00    -0.245 OA
ATOM     14  C   LIG    1       36.160  17.297 198.722  0.00  0.00    +0.092 A 
ATOM     15  C   LIG    1       35.817  18.416 199.408  0.00  0.00    +0.018 A 
ATOM     16  C   LIG    1       32.205  18.652 198.420  0.00  0.00    +0.081 A 
ATOM     17  C   LIG    1       31.220  17.883 197.554  0.00  0.00    +0.258 C 
ENDROOT
BRANCH   1  18
ATOM     18  O   LIG    1       28.940  17.996 196.598  0.00  0.00    -0.453 OA
BRANCH  18  19
ATOM     19  C   LIG    1       28.764  18.003 195.265  0.00  0.00    +0.310 C 
ATOM     20  O   LIG    1       28.708  19.072 194.659  0.00  0.00    -0.251 OA
BRANCH  19  21
ATOM     21  C   LIG    1       28.544  16.666 194.538  0.00  0.00    +0.094 C 
ATOM     22  C   LIG    1       28.840  16.791 193.029  0.00  0.00    +0.019 C 
BRANCH  21  24
ATOM     23  C   LIG    1       27.033  15.171 196.011  0.00  0.00    +0.004 C 
ATOM     24  C   LIG    1       27.127  16.117 194.804  0.00  0.00    +0.011 C 
ENDBRANCH  21  24
ENDBRANCH  19  21
ENDBRANCH  18  19
ENDBRANCH   1  18
BRANCH  17  25
ATOM     25  O   LIG    1       30.784  16.740 198.347  0.00  0.00    -0.453 OA
BRANCH  25  26
ATOM     26  C   LIG    1       30.771  15.508 197.843  0.00  0.00    +0.305 C 
ATOM     27  O   LIG    1       30.390  14.549 198.505  0.00  0.00    -0.251 OA
ATOM     28  C   LIG    1       31.270  15.324 196.425  0.00  0.00    +0.136 C 
ENDBRANCH  25  26
ENDBRANCH  17  25
TORSDOF 6
ENDMDL
