REMARK VINA RESULT:      -7.2      2.968      4.297
REMARK  Name = ZINC000006087320
REMARK                            x       y       z     vdW  Elec       q    Type
REMARK                         _______ _______ _______ _____ _____    ______ ____
ROOT
ATOM      1  C   LIG    1       20.306  38.382 211.320  0.00  0.00    +0.222 C 
ENDROOT
BRANCH   1   2
ATOM      2  N   LIG    1       20.728  39.777 211.050  0.00  0.00    -0.290 N 
ATOM      3  C   LIG    1       21.843  40.038 210.272  0.00  0.00    +0.262 A 
ATOM      4  O   LIG    1       22.468  39.069 209.832  0.00  0.00    -0.267 OA
ATOM      5  C   LIG    1       22.207  41.419 210.043  0.00  0.00    +0.068 A 
ATOM      6  C   LIG    1       23.305  41.773 209.244  0.00  0.00    +0.035 A 
ATOM      7  C   LIG    1       23.622  43.114 209.054  0.00  0.00    +0.043 A 
ATOM      8 CL   LIG    1       24.976  43.547 208.069  0.00  0.00    -0.083 Cl
ATOM      9  C   LIG    1       22.854  44.114 209.655  0.00  0.00    +0.042 A 
ATOM     10  C   LIG    1       21.766  43.768 210.448  0.00  0.00    +0.068 A 
ATOM     11 CL   LIG    1       20.835  45.038 211.179  0.00  0.00    -0.081 Cl
ATOM     12  C   LIG    1       21.430  42.411 210.653  0.00  0.00    +0.096 A 
ATOM     13  N   LIG    1       20.337  42.036 211.458  0.00  0.00    -0.235 NA
ATOM     14  C   LIG    1       20.023  40.811 211.642  0.00  0.00    +0.203 A 
ENDBRANCH   1   2
BRANCH   1  17
ATOM     15  N   LIG    1       18.332  38.414 209.845  0.00  0.00    -0.284 N 
ATOM     16  H   LIG    1       19.072  38.515 209.127  0.00  0.00    +0.155 HD
ATOM     17  C   LIG    1       18.799  38.313 211.133  0.00  0.00    +0.237 C 
ATOM     18  O   LIG    1       18.053  38.158 212.076  0.00  0.00    -0.274 OA
BRANCH  15  20
ATOM     19  C   LIG    1       16.472  37.237 208.839  0.00  0.00    -0.026 A 
ATOM     20  C   LIG    1       16.999  38.434 209.358  0.00  0.00    +0.037 A 
ATOM     21  C   LIG    1       16.217  39.592 209.412  0.00  0.00    +0.023 A 
ATOM     22  C   LIG    1       14.915  39.569 208.926  0.00  0.00    +0.002 A 
ATOM     23  C   LIG    1       14.390  38.395 208.394  0.00  0.00    +0.000 A 
ATOM     24  C   LIG    1       15.165  37.239 208.353  0.00  0.00    +0.005 A 
BRANCH  19  26
ATOM     25  C   LIG    1       17.242  35.481 207.308  0.00  0.00    +0.009 C 
ATOM     26  C   LIG    1       17.273  35.942 208.772  0.00  0.00    +0.033 C 
ENDBRANCH  19  26
ENDBRANCH  15  20
ENDBRANCH   1  17
TORSDOF 4
