REMARK VINA RESULT:      -6.7      1.812      3.286
REMARK  Name = ZINC000000538069
REMARK                            x       y       z     vdW  Elec       q    Type
REMARK                         _______ _______ _______ _____ _____    ______ ____
ROOT
ATOM      1  C   LIG    1       20.320  47.462 187.822  0.00  0.00    +0.248 C 
ATOM      2  N   LIG    1       20.544  47.709 186.500  0.00  0.00    -0.307 N 
ATOM      3  H   LIG    1       21.348  47.212 186.081  0.00  0.00    +0.149 HD
ATOM      4  O   LIG    1       19.534  48.217 188.388  0.00  0.00    -0.270 OA
ENDROOT
BRANCH   1   9
ATOM      5  C   LIG    1       22.180  44.203 189.908  0.00  0.00    +0.049 A 
ATOM      6  C   LIG    1       21.270  45.064 190.557  0.00  0.00    +0.063 A 
ATOM      7 CL   LIG    1       20.857  44.821 192.223  0.00  0.00    -0.082 Cl
ATOM      8  C   LIG    1       20.688  46.112 189.856  0.00  0.00    +0.038 A 
ATOM      9  C   LIG    1       20.984  46.341 188.499  0.00  0.00    +0.080 A 
ATOM     10  C   LIG    1       21.915  45.475 187.875  0.00  0.00    +0.134 A 
ATOM     11  C   LIG    1       22.506  44.418 188.570  0.00  0.00    +0.070 A 
BRANCH   5  13
ATOM     12  C   LIG    1       24.046  43.341 191.306  0.00  0.00    +0.125 C 
ATOM     13  N   LIG    1       22.760  43.141 190.628  0.00  0.00    -0.346 N 
ATOM     14  H   LIG    1       22.707  42.246 190.107  0.00  0.00    +0.146 HD
ENDBRANCH   5  13
BRANCH  10  15
ATOM     15  O   LIG    1       22.265  45.674 186.549  0.00  0.00    -0.494 OA
ATOM     16  C   LIG    1       22.911  44.753 185.639  0.00  0.00    +0.277 C 
ENDBRANCH  10  15
ENDBRANCH   1   9
BRANCH   2  17
ATOM     17  C   LIG    1       20.232  48.977 185.834  0.00  0.00    +0.091 C 
ATOM     18  C   LIG    1       21.148  49.204 184.611  0.00  0.00    +0.074 C 
ATOM     19  C   LIG    1       22.631  48.934 184.926  0.00  0.00    +0.026 C 
ATOM     20  N   LIG    1       20.696  48.196 183.643  0.00  0.00    -0.294 NA
ATOM     21  C   LIG    1       19.264  47.902 183.905  0.00  0.00    +0.087 C 
ATOM     22  C   LIG    1       18.897  48.763 185.131  0.00  0.00    +0.039 C 
BRANCH  20  23
ATOM     23  C   LIG    1       20.935  48.611 182.245  0.00  0.00    +0.120 C 
BRANCH  23  24
ATOM     24  C   LIG    1       20.410  50.033 182.147  0.00  0.00    -0.033 A 
ATOM     25  C   LIG    1       19.070  50.282 181.854  0.00  0.00    +0.005 A 
ATOM     26  C   LIG    1       18.599  51.590 181.773  0.00  0.00    +0.000 A 
ATOM     27  C   LIG    1       19.468  52.657 181.986  0.00  0.00    +0.000 A 
ATOM     28  C   LIG    1       20.805  52.415 182.279  0.00  0.00    +0.000 A 
ATOM     29  C   LIG    1       21.274  51.108 182.358  0.00  0.00    +0.005 A 
ENDBRANCH  23  24
ENDBRANCH  20  23
ENDBRANCH   2  17
TORSDOF 6
