REMARK VINA RESULT:      -8.3      3.310      4.218
REMARK  Name = ZINC000186872603
REMARK                            x       y       z     vdW  Elec       q    Type
REMARK                         _______ _______ _______ _____ _____    ______ ____
ROOT
ATOM      1  N   LIG    1       23.739  45.572 182.934  0.00  0.00    -0.297 N 
ATOM      2  C   LIG    1       24.945  44.769 182.599  0.00  0.00    +0.123 C 
ATOM      3  C   LIG    1       24.539  43.274 182.561  0.00  0.00    +0.103 C 
ATOM      4  N   LIG    1       23.972  42.850 183.875  0.00  0.00    -0.299 NA
ATOM      5  C   LIG    1       22.755  43.669 184.174  0.00  0.00    +0.103 C 
ATOM      6  C   LIG    1       23.080  45.187 184.210  0.00  0.00    +0.123 C 
ENDROOT
BRANCH   1  10
ATOM      7  C   LIG    1       25.057  48.922 179.804  0.00  0.00    +0.066 C 
ATOM      8  C   LIG    1       24.313  48.523 181.055  0.00  0.00    +0.044 A 
ATOM      9  N   LIG    1       24.356  47.264 181.437  0.00  0.00    -0.220 NA
ATOM     10  C   LIG    1       23.694  46.903 182.543  0.00  0.00    +0.218 A 
ATOM     11  N   LIG    1       22.988  47.758 183.293  0.00  0.00    -0.219 NA
ATOM     12  C   LIG    1       22.925  49.030 182.934  0.00  0.00    +0.049 A 
ATOM     13  C   LIG    1       23.593  49.449 181.793  0.00  0.00    +0.046 A 
BRANCH  12  14
ATOM     14  C   LIG    1       22.122  50.017 183.775  0.00  0.00    +0.032 C 
ATOM     15  C   LIG    1       21.516  51.089 182.856  0.00  0.00    +0.014 C 
ATOM     16  C   LIG    1       23.045  50.656 184.824  0.00  0.00    +0.014 C 
ENDBRANCH  12  14
ENDBRANCH   1  10
BRANCH   4  17
ATOM     17  C   LIG    1       24.985  42.834 184.951  0.00  0.00    +0.085 C 
BRANCH  17  18
ATOM     18  C   LIG    1       24.300  42.114 186.127  0.00  0.00    +0.025 C 
BRANCH  18  19
ATOM     19  C   LIG    1       25.122  42.369 187.405  0.00  0.00    +0.097 C 
BRANCH  19  20
ATOM     20  C   LIG    1       24.210  42.966 188.455  0.00  0.00    +0.197 A 
ATOM     21  O   LIG    1       22.962  43.369 188.092  0.00  0.00    -0.440 OA
ATOM     22  C   LIG    1       22.413  43.832 189.219  0.00  0.00    +0.155 A 
ATOM     23  C   LIG    1       21.144  44.368 189.429  0.00  0.00    +0.048 A 
ATOM     24  C   LIG    1       20.824  44.778 190.720  0.00  0.00    +0.004 A 
ATOM     25  C   LIG    1       21.765  44.648 191.763  0.00  0.00    +0.002 A 
ATOM     26  C   LIG    1       23.026  44.107 191.518  0.00  0.00    +0.031 A 
ATOM     27  C   LIG    1       23.342  43.695 190.221  0.00  0.00    +0.110 A 
ATOM     28  N   LIG    1       24.482  43.135 189.695  0.00  0.00    -0.213 NA
ENDBRANCH  19  20
ENDBRANCH  18  19
ENDBRANCH  17  18
ENDBRANCH   4  17
TORSDOF 6
