REMARK VINA RESULT:      -7.7     29.640     30.889
REMARK  Name = ZINC000049399659
REMARK                            x       y       z     vdW  Elec       q    Type
REMARK                         _______ _______ _______ _____ _____    ______ ____
ROOT
ATOM      1  C   LIG    1       34.074  20.432 185.821  0.00  0.00    +0.173 C 
ENDROOT
BRANCH   1   4
ATOM      2  N   LIG    1       36.020  20.751 187.292  0.00  0.00    -0.282 N 
ATOM      3  H   LIG    1       35.299  21.092 187.947  0.00  0.00    +0.155 HD
ATOM      4  C   LIG    1       35.573  20.442 186.031  0.00  0.00    +0.228 C 
ATOM      5  O   LIG    1       36.350  20.197 185.132  0.00  0.00    -0.275 OA
BRANCH   2   7
ATOM      6  C   LIG    1       37.458  20.796 189.216  0.00  0.00    +0.141 A 
ATOM      7  C   LIG    1       37.344  20.790 187.816  0.00  0.00    +0.077 A 
ATOM      8  C   LIG    1       38.490  20.800 187.018  0.00  0.00    +0.047 A 
ATOM      9  C   LIG    1       39.744  20.833 187.628  0.00  0.00    +0.043 A 
ATOM     10 CL   LIG    1       41.175  20.849 186.655  0.00  0.00    -0.083 Cl
ATOM     11  C   LIG    1       39.860  20.850 189.022  0.00  0.00    +0.024 A 
ATOM     12  C   LIG    1       38.717  20.830 189.818  0.00  0.00    +0.049 A 
BRANCH   6  14
ATOM     13  C   LIG    1       36.040  21.568 191.153  0.00  0.00    +0.277 C 
ATOM     14  O   LIG    1       36.288  20.764 189.976  0.00  0.00    -0.493 OA
ENDBRANCH   6  14
ENDBRANCH   2   7
ENDBRANCH   1   4
BRANCH   1  15
ATOM     15  S   LIG    1       33.468  18.834 186.484  0.00  0.00    -0.077 S 
BRANCH  15  16
ATOM     16  C   LIG    1       32.402  18.286 185.229  0.00  0.00    +0.190 A 
ATOM     17  N   LIG    1       31.138  18.017 185.561  0.00  0.00    -0.207 NA
ATOM     18  C   LIG    1       30.320  17.602 184.608  0.00  0.00    +0.126 A 
ATOM     19  C   LIG    1       30.761  17.452 183.298  0.00  0.00    +0.063 A 
ATOM     20  C   LIG    1       32.080  17.738 183.020  0.00  0.00    +0.117 A 
ATOM     21  N   LIG    1       32.894  18.150 183.982  0.00  0.00    -0.230 NA
BRANCH  18  22
ATOM     22  N   LIG    1       28.999  17.322 184.940  0.00  0.00    -0.315 N 
ATOM     23  C   LIG    1       28.251  16.488 183.979  0.00  0.00    +0.106 C 
ATOM     24  C   LIG    1       26.767  16.860 184.157  0.00  0.00    +0.019 C 
ATOM     25  C   LIG    1       26.368  16.538 185.608  0.00  0.00    +0.003 C 
ATOM     26  C   LIG    1       27.224  17.370 186.578  0.00  0.00    +0.019 C 
ATOM     27  C   LIG    1       28.704  17.004 186.355  0.00  0.00    +0.106 C 
ENDBRANCH  18  22
ENDBRANCH  15  16
ENDBRANCH   1  15
TORSDOF 6
