REMARK VINA RESULT:      -7.9     25.984     28.796
REMARK  Name = ZINC000000603759
REMARK                            x       y       z     vdW  Elec       q    Type
REMARK                         _______ _______ _______ _____ _____    ______ ____
ROOT
ATOM      1  C   LIG    1       38.895  21.666 192.105  0.00  0.00    +0.139 A 
ATOM      2  C   LIG    1       38.828  21.066 193.392  0.00  0.00    +0.050 A 
ATOM      3  C   LIG    1       38.073  20.043 193.993  0.00  0.00    +0.015 A 
ATOM      4  C   LIG    1       38.328  19.759 195.320  0.00  0.00    +0.020 A 
ATOM      5  C   LIG    1       39.315  20.483 196.032  0.00  0.00    +0.113 A 
ATOM      6  N   LIG    1       40.030  21.442 195.477  0.00  0.00    -0.236 NA
ATOM      7  C   LIG    1       39.769  21.701 194.169  0.00  0.00    +0.159 A 
ATOM      8  N   LIG    1       40.360  22.626 193.358  0.00  0.00    -0.241 N 
ATOM      9  N   LIG    1       39.829  22.613 192.104  0.00  0.00    -0.165 NA
ENDROOT
BRANCH   1  14
ATOM     10  C   LIG    1       37.902  20.640 188.752  0.00  0.00    +0.128 A 
ATOM     11  C   LIG    1       36.502  20.652 188.797  0.00  0.00    +0.040 A 
ATOM     12  C   LIG    1       35.944  21.025 190.010  0.00  0.00    +0.125 A 
ATOM     13  N   LIG    1       36.708  21.344 191.043  0.00  0.00    -0.234 NA
ATOM     14  C   LIG    1       38.064  21.309 190.940  0.00  0.00    +0.183 A 
ATOM     15  N   LIG    1       38.650  20.954 189.782  0.00  0.00    -0.211 NA
BRANCH  11  16
ATOM     16  C   LIG    1       35.671  20.293 187.657  0.00  0.00    -0.010 A 
ATOM     17  C   LIG    1       35.259  18.978 187.435  0.00  0.00    +0.028 A 
ATOM     18  C   LIG    1       34.464  18.671 186.339  0.00  0.00    +0.111 A 
ATOM     19  N   LIG    1       34.073  19.607 185.475  0.00  0.00    -0.263 NA
ATOM     20  C   LIG    1       34.448  20.872 185.659  0.00  0.00    +0.111 A 
ATOM     21  C   LIG    1       35.242  21.248 186.734  0.00  0.00    +0.028 A 
ENDBRANCH  11  16
BRANCH  10  22
ATOM     22  N   LIG    1       38.612  20.323 187.643  0.00  0.00    -0.343 N 
ATOM     23  H   LIG    1       39.307  19.571 187.730  0.00  0.00    +0.144 HD
ATOM     24  H   LIG    1       38.060  20.362 186.775  0.00  0.00    +0.144 HD
ENDBRANCH  10  22
ENDBRANCH   1  14
BRANCH   8  25
ATOM     25  C   LIG    1       41.439  23.525 193.756  0.00  0.00    +0.183 C 
BRANCH  25  26
ATOM     26  C   LIG    1       40.840  24.563 194.697  0.00  0.00    +0.009 A 
ATOM     27  C   LIG    1       41.375  24.782 195.966  0.00  0.00    +0.128 A 
ATOM     28  F   LIG    1       42.441  24.056 196.385  0.00  0.00    -0.205 F 
ATOM     29  C   LIG    1       40.849  25.718 196.847  0.00  0.00    +0.039 A 
ATOM     30  C   LIG    1       39.743  26.465 196.452  0.00  0.00    +0.003 A 
ATOM     31  C   LIG    1       39.184  26.262 195.191  0.00  0.00    +0.000 A 
ATOM     32  C   LIG    1       39.726  25.318 194.320  0.00  0.00    +0.008 A 
ENDBRANCH  25  26
ENDBRANCH   8  25
TORSDOF 5
