REMARK VINA RESULT:      -7.0      3.785      5.923
REMARK  Name = ZINC000078751741
REMARK                            x       y       z     vdW  Elec       q    Type
REMARK                         _______ _______ _______ _____ _____    ______ ____
ROOT
ATOM      1  S   LIG    1       23.012  45.200 183.571  0.00  0.00    +0.073 S 
ATOM      2  O   LIG    1       23.278  46.332 184.382  0.00  0.00    -0.150 OA
ATOM      3  O   LIG    1       21.807  44.493 183.811  0.00  0.00    -0.150 OA
ENDROOT
BRANCH   1   6
ATOM      4  C   LIG    1       23.622  42.829 185.866  0.00  0.00    +0.053 C 
ATOM      5  C   LIG    1       24.547  43.111 184.700  0.00  0.00    +0.014 A 
ATOM      6  C   LIG    1       24.396  44.060 183.713  0.00  0.00    +0.119 A 
ATOM      7  C   LIG    1       25.464  44.041 182.799  0.00  0.00    +0.051 A 
ATOM      8  C   LIG    1       26.412  43.080 183.068  0.00  0.00    +0.098 A 
ATOM      9  S   LIG    1       25.991  42.191 184.494  0.00  0.00    -0.085 S 
BRANCH   8  10
ATOM     10  C   LIG    1       27.610  42.790 182.306  0.00  0.00    +0.344 C 
ATOM     11  O   LIG    1       28.044  43.475 181.403  0.00  0.00    -0.245 OA
BRANCH  10  12
ATOM     12  O   LIG    1       28.297  41.693 182.603  0.00  0.00    -0.477 OA
ATOM     13  H   LIG    1       27.877  41.315 183.393  0.00  0.00    +0.295 HD
ENDBRANCH  10  12
ENDBRANCH   8  10
ENDBRANCH   1   6
BRANCH   1  14
ATOM     14  N   LIG    1       23.013  45.681 181.989  0.00  0.00    -0.213 N 
ATOM     15  H   LIG    1       23.977  45.423 181.746  0.00  0.00    +0.174 HD
BRANCH  14  16
ATOM     16  C   LIG    1       22.110  44.969 181.189  0.00  0.00    +0.084 A 
ATOM     17  C   LIG    1       20.984  45.596 180.648  0.00  0.00    +0.146 A 
ATOM     18  F   LIG    1       20.747  46.896 180.927  0.00  0.00    -0.204 F 
ATOM     19  C   LIG    1       20.100  44.912 179.829  0.00  0.00    +0.041 A 
ATOM     20  C   LIG    1       20.337  43.565 179.550  0.00  0.00    +0.015 A 
ATOM     21  C   LIG    1       21.452  42.903 180.097  0.00  0.00    +0.057 A 
ATOM     22  C   LIG    1       22.323  43.613 180.937  0.00  0.00    +0.039 A 
BRANCH  21  23
ATOM     23  C   LIG    1       21.715  41.416 179.812  0.00  0.00    +0.417 C 
ATOM     24  F   LIG    1       22.075  41.230 178.532  0.00  0.00    -0.166 F 
ATOM     25  F   LIG    1       20.597  40.718 180.061  0.00  0.00    -0.166 F 
ATOM     26  F   LIG    1       22.700  40.966 180.614  0.00  0.00    -0.166 F 
ENDBRANCH  21  23
ENDBRANCH  14  16
ENDBRANCH   1  14
TORSDOF 6
