REMARK VINA RESULT:      -6.8     28.325     30.266
REMARK  Name = ZINC000000608130
REMARK                            x       y       z     vdW  Elec       q    Type
REMARK                         _______ _______ _______ _____ _____    ______ ____
ROOT
ATOM      1  C   LIG    1       29.052  16.601 196.623  0.00  0.00    +0.264 C 
ATOM      2  C   LIG    1       29.690  17.333 195.411  0.00  0.00    +0.145 C 
ATOM      3  C   LIG    1       29.019  18.649 194.976  0.00  0.00    +0.059 C 
ATOM      4  C   LIG    1       29.661  16.391 194.199  0.00  0.00    +0.059 C 
ATOM      5  O   LIG    1       31.077  17.608 195.699  0.00  0.00    -0.482 OA
ATOM      6  C   LIG    1       31.520  17.941 196.949  0.00  0.00    +0.132 A 
ATOM      7  C   LIG    1       32.848  18.361 197.064  0.00  0.00    +0.047 A 
ATOM      8  C   LIG    1       33.356  18.717 198.305  0.00  0.00    +0.015 A 
ATOM      9  C   LIG    1       32.540  18.656 199.444  0.00  0.00    +0.018 A 
ATOM     10  C   LIG    1       31.207  18.226 199.298  0.00  0.00    +0.149 A 
ATOM     11  O   LIG    1       30.391  18.171 200.415  0.00  0.00    -0.422 OA
ATOM     12  C   LIG    1       30.816  18.524 201.657  0.00  0.00    +0.337 A 
ATOM     13  O   LIG    1       30.008  18.453 202.569  0.00  0.00    -0.245 OA
ATOM     14  C   LIG    1       32.180  18.956 201.816  0.00  0.00    +0.092 A 
ATOM     15  C   LIG    1       33.019  19.022 200.751  0.00  0.00    +0.018 A 
ATOM     16  C   LIG    1       30.680  17.853 198.060  0.00  0.00    +0.081 A 
ATOM     17  C   LIG    1       29.234  17.397 197.942  0.00  0.00    +0.258 C 
ENDROOT
BRANCH   1  18
ATOM     18  O   LIG    1       27.617  16.382 196.368  0.00  0.00    -0.453 OA
BRANCH  18  19
ATOM     19  C   LIG    1       27.127  15.133 196.295  0.00  0.00    +0.310 C 
ATOM     20  O   LIG    1       27.833  14.176 196.610  0.00  0.00    -0.251 OA
BRANCH  19  21
ATOM     21  C   LIG    1       25.713  14.922 195.726  0.00  0.00    +0.094 C 
ATOM     22  C   LIG    1       25.568  15.561 194.329  0.00  0.00    +0.019 C 
BRANCH  21  24
ATOM     23  C   LIG    1       23.224  15.506 196.113  0.00  0.00    +0.004 C 
ATOM     24  C   LIG    1       24.639  15.434 196.708  0.00  0.00    +0.011 C 
ENDBRANCH  21  24
ENDBRANCH  19  21
ENDBRANCH  18  19
ENDBRANCH   1  18
BRANCH  17  25
ATOM     25  O   LIG    1       28.424  18.608 197.927  0.00  0.00    -0.453 OA
BRANCH  25  26
ATOM     26  C   LIG    1       27.593  18.902 198.926  0.00  0.00    +0.305 C 
ATOM     27  O   LIG    1       26.820  18.067 199.383  0.00  0.00    -0.251 OA
ATOM     28  C   LIG    1       27.616  20.318 199.464  0.00  0.00    +0.136 C 
ENDBRANCH  25  26
ENDBRANCH  17  25
TORSDOF 6
