REMARK VINA RESULT:      -7.0     26.733     30.120
REMARK  Name = ZINC000006087400
REMARK                            x       y       z     vdW  Elec       q    Type
REMARK                         _______ _______ _______ _____ _____    ______ ____
ROOT
ATOM      1  C   LIG    1       27.737  45.726 212.130  0.00  0.00    +0.214 C 
ENDROOT
BRANCH   1   7
ATOM      2  C   LIG    1       23.478  46.696 211.144  0.00  0.00    +0.010 C 
ATOM      3  C   LIG    1       23.812  46.663 209.636  0.00  0.00    +0.018 C 
ATOM      4  C   LIG    1       25.355  46.666 209.372  0.00  0.00    +0.115 C 
ATOM      5  C   LIG    1       26.135  45.636 210.197  0.00  0.00    +0.247 C 
ATOM      6  O   LIG    1       26.127  44.418 210.164  0.00  0.00    -0.273 OA
ATOM      7  N   LIG    1       26.943  46.323 211.051  0.00  0.00    -0.215 N 
ATOM      8  C   LIG    1       26.788  47.671 210.876  0.00  0.00    +0.310 C 
ATOM      9  O   LIG    1       27.328  48.536 211.541  0.00  0.00    -0.252 OA
ATOM     10  N   LIG    1       25.934  47.909 209.861  0.00  0.00    -0.285 N 
ATOM     11  H   LIG    1       25.486  48.829 209.791  0.00  0.00    +0.151 HD
ATOM     12  C   LIG    1       25.666  46.581 207.856  0.00  0.00    +0.035 C 
ATOM     13  C   LIG    1       24.994  45.333 207.254  0.00  0.00    +0.003 C 
ATOM     14  C   LIG    1       23.482  45.332 207.504  0.00  0.00    +0.000 C 
ATOM     15  C   LIG    1       23.178  45.409 209.005  0.00  0.00    +0.006 C 
ENDBRANCH   1   7
BRANCH   1  16
ATOM     16  C   LIG    1       29.103  45.362 211.546  0.00  0.00    +0.238 C 
ATOM     17  N   LIG    1       29.563  44.055 211.609  0.00  0.00    -0.267 N 
ATOM     18  O   LIG    1       29.810  46.205 211.013  0.00  0.00    -0.274 OA
BRANCH  17  19
ATOM     19  C   LIG    1       28.875  43.043 212.319  0.00  0.00    +0.010 C 
ATOM     20  C   LIG    1       28.814  43.231 213.824  0.00  0.00    +0.051 C 
ATOM     21  C   LIG    1       28.494  41.857 214.455  0.00  0.00    +0.006 C 
ATOM     22  C   LIG    1       27.226  41.311 213.767  0.00  0.00    +0.004 C 
ATOM     23  C   LIG    1       27.603  40.869 212.336  0.00  0.00    +0.029 C 
ATOM     24  C   LIG    1       28.323  42.014 211.650  0.00  0.00    -0.008 C 
ENDBRANCH  17  19
BRANCH  17  25
ATOM     25  C   LIG    1       30.849  43.707 210.977  0.00  0.00    +0.187 C 
BRANCH  25  26
ATOM     26  C   LIG    1       31.862  43.660 212.103  0.00  0.00    +0.122 A 
ATOM     27  O   LIG    1       32.479  44.798 212.528  0.00  0.00    -0.466 OA
ATOM     28  C   LIG    1       33.329  44.449 213.526  0.00  0.00    +0.195 A 
ATOM     29  C   LIG    1       33.257  43.115 213.735  0.00  0.00    +0.041 A 
ATOM     30  C   LIG    1       32.322  42.611 212.825  0.00  0.00    +0.046 A 
ENDBRANCH  25  26
ENDBRANCH  17  25
ENDBRANCH   1  16
TORSDOF 5
