REMARK VINA RESULT:      -8.5      0.000      0.000
REMARK  Name = ZINC000000538144
REMARK                            x       y       z     vdW  Elec       q    Type
REMARK                         _______ _______ _______ _____ _____    ______ ____
ROOT
ATOM      1  C   LIG    1       22.777  44.633 190.493  0.00  0.00    +0.163 A 
ATOM      2  C   LIG    1       22.043  45.071 189.345  0.00  0.00    +0.162 A 
ATOM      3  C   LIG    1       22.292  44.524 188.097  0.00  0.00    +0.059 A 
ATOM      4  C   LIG    1       23.270  43.522 187.964  0.00  0.00    +0.007 A 
ATOM      5  C   LIG    1       23.746  42.763 186.867  0.00  0.00    -0.018 A 
ATOM      6  C   LIG    1       24.707  41.916 187.324  0.00  0.00    +0.017 A 
ATOM      7  C   LIG    1       25.545  40.893 186.587  0.00  0.00    +0.063 C 
ATOM      8  N   LIG    1       24.856  42.133 188.680  0.00  0.00    -0.358 N 
ATOM      9  H   LIG    1       25.521  41.641 189.296  0.00  0.00    +0.166 HD
ATOM     10  C   LIG    1       23.972  43.113 189.091  0.00  0.00    +0.051 A 
ATOM     11  C   LIG    1       23.751  43.649 190.368  0.00  0.00    +0.075 A 
ENDROOT
BRANCH   1  13
ATOM     12  C   LIG    1       21.573  44.700 192.718  0.00  0.00    +0.277 C 
ATOM     13  O   LIG    1       22.521  45.192 191.744  0.00  0.00    -0.491 OA
ENDBRANCH   1  13
BRANCH   2  14
ATOM     14  O   LIG    1       21.045  46.048 189.369  0.00  0.00    -0.491 OA
ATOM     15  C   LIG    1       19.672  45.907 189.794  0.00  0.00    +0.277 C 
ENDBRANCH   2  14
BRANCH   5  16
ATOM     16  C   LIG    1       23.239  42.882 185.445  0.00  0.00    +0.053 C 
BRANCH  16  17
ATOM     17  C   LIG    1       24.355  43.608 184.677  0.00  0.00    +0.089 C 
BRANCH  17  18
ATOM     18  N   LIG    1       24.534  42.895 183.382  0.00  0.00    -0.299 NA
ATOM     19  C   LIG    1       25.919  42.354 183.163  0.00  0.00    +0.103 C 
ATOM     20  C   LIG    1       26.949  43.500 182.954  0.00  0.00    +0.120 C 
ATOM     21  N   LIG    1       26.501  44.326 181.804  0.00  0.00    -0.327 N 
ATOM     22  C   LIG    1       25.162  44.915 182.046  0.00  0.00    +0.120 C 
ATOM     23  C   LIG    1       24.153  43.747 182.215  0.00  0.00    +0.103 C 
BRANCH  21  24
ATOM     24  C   LIG    1       27.513  45.161 181.281  0.00  0.00    +0.030 A 
ATOM     25  C   LIG    1       27.662  45.378 179.904  0.00  0.00    +0.023 A 
ATOM     26  C   LIG    1       28.670  46.216 179.441  0.00  0.00    +0.002 A 
ATOM     27  C   LIG    1       29.534  46.839 180.339  0.00  0.00    +0.000 A 
ATOM     28  C   LIG    1       29.389  46.620 181.707  0.00  0.00    +0.002 A 
ATOM     29  C   LIG    1       28.386  45.782 182.178  0.00  0.00    +0.023 A 
ENDBRANCH  21  24
ENDBRANCH  17  18
ENDBRANCH  16  17
ENDBRANCH   5  16
TORSDOF 6
