MODEL 1
REMARK VINA RESULT:      -8.9      0.000      0.000
REMARK  Name = ZINC000000603759
REMARK                            x       y       z     vdW  Elec       q    Type
REMARK                         _______ _______ _______ _____ _____    ______ ____
ROOT
ATOM      1  C   LIG    1       24.047  43.219 183.210  0.00  0.00    +0.139 A 
ATOM      2  C   LIG    1       25.254  43.602 182.565  0.00  0.00    +0.050 A 
ATOM      3  C   LIG    1       26.481  44.163 182.963  0.00  0.00    +0.015 A 
ATOM      4  C   LIG    1       27.427  44.388 181.983  0.00  0.00    +0.020 A 
ATOM      5  C   LIG    1       27.152  44.063 180.633  0.00  0.00    +0.113 A 
ATOM      6  N   LIG    1       26.006  43.535 180.249  0.00  0.00    -0.236 NA
ATOM      7  C   LIG    1       25.093  43.314 181.229  0.00  0.00    +0.159 A 
ATOM      8  N   LIG    1       23.843  42.778 181.113  0.00  0.00    -0.241 N 
ATOM      9  N   LIG    1       23.200  42.723 182.312  0.00  0.00    -0.165 NA
ENDROOT
BRANCH   1  14
ATOM     10  C   LIG    1       23.833  42.474 186.771  0.00  0.00    +0.128 A 
ATOM     11  C   LIG    1       23.214  43.607 187.315  0.00  0.00    +0.040 A 
ATOM     12  C   LIG    1       22.884  44.603 186.410  0.00  0.00    +0.125 A 
ATOM     13  N   LIG    1       23.150  44.469 185.121  0.00  0.00    -0.234 NA
ATOM     14  C   LIG    1       23.759  43.346 184.651  0.00  0.00    +0.183 A 
ATOM     15  N   LIG    1       24.096  42.352 185.492  0.00  0.00    -0.211 NA
BRANCH  11  16
ATOM     16  C   LIG    1       22.932  43.747 188.737  0.00  0.00    -0.010 A 
ATOM     17  C   LIG    1       21.638  43.972 189.209  0.00  0.00    +0.028 A 
ATOM     18  C   LIG    1       21.404  44.097 190.572  0.00  0.00    +0.111 A 
ATOM     19  N   LIG    1       22.391  44.010 191.462  0.00  0.00    -0.263 NA
ATOM     20  C   LIG    1       23.638  43.794 191.044  0.00  0.00    +0.111 A 
ATOM     21  C   LIG    1       23.943  43.658 189.696  0.00  0.00    +0.028 A 
ENDBRANCH  11  16
BRANCH  10  22
ATOM     22  N   LIG    1       24.202  41.397 187.506  0.00  0.00    -0.343 N 
ATOM     23  H   LIG    1       25.156  41.394 187.887  0.00  0.00    +0.144 HD
ATOM     24  H   LIG    1       23.449  41.029 188.104  0.00  0.00    +0.144 HD
ENDBRANCH  10  22
ENDBRANCH   1  14
BRANCH   8  25
ATOM     25  C   LIG    1       23.245  42.303 179.868  0.00  0.00    +0.183 C 
BRANCH  25  26
ATOM     26  C   LIG    1       22.104  43.252 179.522  0.00  0.00    +0.009 A 
ATOM     27  C   LIG    1       20.773  42.853 179.634  0.00  0.00    +0.128 A 
ATOM     28  F   LIG    1       20.476  41.595 180.047  0.00  0.00    -0.205 F 
ATOM     29  C   LIG    1       19.712  43.694 179.323  0.00  0.00    +0.039 A 
ATOM     30  C   LIG    1       19.985  44.984 178.879  0.00  0.00    +0.003 A 
ATOM     31  C   LIG    1       21.307  45.408 178.752  0.00  0.00    +0.000 A 
ATOM     32  C   LIG    1       22.360  44.549 179.069  0.00  0.00    +0.008 A 
ENDBRANCH  25  26
ENDBRANCH   8  25
TORSDOF 5
ENDMDL
MODEL 2
REMARK VINA RESULT:      -8.9     27.530     30.358
REMARK  Name = ZINC000000603759
REMARK                            x       y       z     vdW  Elec       q    Type
REMARK                         _______ _______ _______ _____ _____    ______ ____
ROOT
ATOM      1  C   LIG    1       26.672  15.949 191.757  0.00  0.00    +0.139 A 
ATOM      2  C   LIG    1       25.602  15.202 192.321  0.00  0.00    +0.050 A 
ATOM      3  C   LIG    1       24.510  14.466 191.825  0.00  0.00    +0.015 A 
ATOM      4  C   LIG    1       23.671  13.872 192.748  0.00  0.00    +0.020 A 
ATOM      5  C   LIG    1       23.916  14.012 194.134  0.00  0.00    +0.113 A 
ATOM      6  N   LIG    1       24.938  14.698 194.610  0.00  0.00    -0.236 NA
ATOM      7  C   LIG    1       25.755  15.268 193.686  0.00  0.00    +0.159 A 
ATOM      8  N   LIG    1       26.876  16.017 193.900  0.00  0.00    -0.241 N 
ATOM      9  N   LIG    1       27.434  16.439 192.732  0.00  0.00    -0.165 NA
ENDROOT
BRANCH   1  14
ATOM     10  C   LIG    1       26.420  15.673 188.132  0.00  0.00    +0.128 A 
ATOM     11  C   LIG    1       27.386  16.571 187.658  0.00  0.00    +0.040 A 
ATOM     12  C   LIG    1       28.104  17.248 188.631  0.00  0.00    +0.125 A 
ATOM     13  N   LIG    1       27.871  17.042 189.918  0.00  0.00    -0.234 NA
ATOM     14  C   LIG    1       26.915  16.160 190.318  0.00  0.00    +0.183 A 
ATOM     15  N   LIG    1       26.194  15.479 189.409  0.00  0.00    -0.211 NA
BRANCH  11  16
ATOM     16  C   LIG    1       27.629  16.794 186.241  0.00  0.00    -0.010 A 
ATOM     17  C   LIG    1       26.622  17.246 185.387  0.00  0.00    +0.028 A 
ATOM     18  C   LIG    1       26.889  17.452 184.039  0.00  0.00    +0.111 A 
ATOM     19  N   LIG    1       28.098  17.229 183.524  0.00  0.00    -0.263 NA
ATOM     20  C   LIG    1       29.081  16.798 184.313  0.00  0.00    +0.111 A 
ATOM     21  C   LIG    1       28.883  16.572 185.669  0.00  0.00    +0.028 A 
ENDBRANCH  11  16
BRANCH  10  22
ATOM     22  N   LIG    1       25.645  14.912 187.323  0.00  0.00    -0.343 N 
ATOM     23  H   LIG    1       25.035  15.405 186.659  0.00  0.00    +0.144 HD
ATOM     24  H   LIG    1       26.109  14.053 186.996  0.00  0.00    +0.144 HD
ENDBRANCH  10  22
ENDBRANCH   1  14
BRANCH   8  25
ATOM     25  C   LIG    1       27.437  16.335 195.210  0.00  0.00    +0.183 C 
BRANCH  25  26
ATOM     26  C   LIG    1       28.821  15.701 195.275  0.00  0.00    +0.009 A 
ATOM     27  C   LIG    1       29.157  14.801 196.285  0.00  0.00    +0.128 A 
ATOM     28  F   LIG    1       28.246  14.483 197.238  0.00  0.00    -0.205 F 
ATOM     29  C   LIG    1       30.411  14.210 196.372  0.00  0.00    +0.039 A 
ATOM     30  C   LIG    1       31.373  14.530 195.419  0.00  0.00    +0.003 A 
ATOM     31  C   LIG    1       31.066  15.433 194.401  0.00  0.00    +0.000 A 
ATOM     32  C   LIG    1       29.801  16.016 194.330  0.00  0.00    +0.008 A 
ENDBRANCH  25  26
ENDBRANCH   8  25
TORSDOF 5
ENDMDL
MODEL 3
REMARK VINA RESULT:      -8.6      1.340      2.356
REMARK  Name = ZINC000000603759
REMARK                            x       y       z     vdW  Elec       q    Type
REMARK                         _______ _______ _______ _____ _____    ______ ____
ROOT
ATOM      1  C   LIG    1       23.505  43.778 183.567  0.00  0.00    +0.139 A 
ATOM      2  C   LIG    1       24.739  43.529 182.907  0.00  0.00    +0.050 A 
ATOM      3  C   LIG    1       26.060  43.253 183.303  0.00  0.00    +0.015 A 
ATOM      4  C   LIG    1       26.998  43.070 182.306  0.00  0.00    +0.020 A 
ATOM      5  C   LIG    1       26.625  43.161 180.944  0.00  0.00    +0.113 A 
ATOM      6  N   LIG    1       25.389  43.417 180.562  0.00  0.00    -0.236 NA
ATOM      7  C   LIG    1       24.481  43.587 181.557  0.00  0.00    +0.159 A 
ATOM      8  N   LIG    1       23.146  43.852 181.445  0.00  0.00    -0.241 N 
ATOM      9  N   LIG    1       22.549  43.974 182.663  0.00  0.00    -0.165 NA
ENDROOT
BRANCH   1  14
ATOM     10  C   LIG    1       22.727  44.988 186.916  0.00  0.00    +0.128 A 
ATOM     11  C   LIG    1       22.921  43.866 187.732  0.00  0.00    +0.040 A 
ATOM     12  C   LIG    1       23.325  42.711 187.080  0.00  0.00    +0.125 A 
ATOM     13  N   LIG    1       23.506  42.697 185.768  0.00  0.00    -0.234 NA
ATOM     14  C   LIG    1       23.297  43.818 185.026  0.00  0.00    +0.183 A 
ATOM     15  N   LIG    1       22.906  44.962 185.617  0.00  0.00    -0.211 NA
BRANCH  11  16
ATOM     16  C   LIG    1       22.712  43.891 189.172  0.00  0.00    -0.010 A 
ATOM     17  C   LIG    1       23.742  43.602 190.068  0.00  0.00    +0.028 A 
ATOM     18  C   LIG    1       23.509  43.639 191.437  0.00  0.00    +0.111 A 
ATOM     19  N   LIG    1       22.312  43.946 191.934  0.00  0.00    -0.263 NA
ATOM     20  C   LIG    1       21.307  44.229 191.105  0.00  0.00    +0.111 A 
ATOM     21  C   LIG    1       21.471  44.212 189.727  0.00  0.00    +0.028 A 
ENDBRANCH  11  16
BRANCH  10  22
ATOM     22  N   LIG    1       22.356  46.202 187.388  0.00  0.00    -0.343 N 
ATOM     23  H   LIG    1       21.531  46.235 187.998  0.00  0.00    +0.144 HD
ATOM     24  H   LIG    1       23.151  46.811 187.628  0.00  0.00    +0.144 HD
ENDBRANCH  10  22
ENDBRANCH   1  14
BRANCH   8  25
ATOM     25  C   LIG    1       22.418  43.981 180.186  0.00  0.00    +0.183 C 
BRANCH  25  26
ATOM     26  C   LIG    1       22.308  42.587 179.581  0.00  0.00    +0.009 A 
ATOM     27  C   LIG    1       21.607  41.571 180.229  0.00  0.00    +0.128 A 
ATOM     28  F   LIG    1       21.017  41.814 181.425  0.00  0.00    -0.205 F 
ATOM     29  C   LIG    1       21.492  40.290 179.704  0.00  0.00    +0.039 A 
ATOM     30  C   LIG    1       22.103  40.006 178.486  0.00  0.00    +0.003 A 
ATOM     31  C   LIG    1       22.816  41.001 177.819  0.00  0.00    +0.000 A 
ATOM     32  C   LIG    1       22.920  42.282 178.362  0.00  0.00    +0.008 A 
ENDBRANCH  25  26
ENDBRANCH   8  25
TORSDOF 5
ENDMDL
MODEL 4
REMARK VINA RESULT:      -8.4     24.170     26.956
REMARK  Name = ZINC000000603759
REMARK                            x       y       z     vdW  Elec       q    Type
REMARK                         _______ _______ _______ _____ _____    ______ ____
ROOT
ATOM      1  C   LIG    1       21.748  41.393 210.687  0.00  0.00    +0.139 A 
ATOM      2  C   LIG    1       22.899  40.845 211.316  0.00  0.00    +0.050 A 
ATOM      3  C   LIG    1       23.340  39.559 211.675  0.00  0.00    +0.015 A 
ATOM      4  C   LIG    1       24.569  39.457 212.297  0.00  0.00    +0.020 A 
ATOM      5  C   LIG    1       25.339  40.616 212.556  0.00  0.00    +0.113 A 
ATOM      6  N   LIG    1       24.936  41.826 212.223  0.00  0.00    -0.236 NA
ATOM      7  C   LIG    1       23.729  41.904 211.606  0.00  0.00    +0.159 A 
ATOM      8  N   LIG    1       23.083  43.018 211.152  0.00  0.00    -0.241 N 
ATOM      9  N   LIG    1       21.876  42.714 210.598  0.00  0.00    -0.165 NA
ENDROOT
BRANCH   1  14
ATOM     10  C   LIG    1       19.144  40.075 208.504  0.00  0.00    +0.128 A 
ATOM     11  C   LIG    1       18.419  39.208 209.331  0.00  0.00    +0.040 A 
ATOM     12  C   LIG    1       18.865  39.114 210.640  0.00  0.00    +0.125 A 
ATOM     13  N   LIG    1       19.914  39.808 211.054  0.00  0.00    -0.234 NA
ATOM     14  C   LIG    1       20.582  40.631 210.202  0.00  0.00    +0.183 A 
ATOM     15  N   LIG    1       20.184  40.756 208.923  0.00  0.00    -0.211 NA
BRANCH  11  16
ATOM     16  C   LIG    1       17.272  38.444 208.862  0.00  0.00    -0.010 A 
ATOM     17  C   LIG    1       15.987  38.989 208.843  0.00  0.00    +0.028 A 
ATOM     18  C   LIG    1       14.915  38.233 208.386  0.00  0.00    +0.111 A 
ATOM     19  N   LIG    1       15.074  36.982 207.957  0.00  0.00    -0.263 NA
ATOM     20  C   LIG    1       16.288  36.433 207.961  0.00  0.00    +0.111 A 
ATOM     21  C   LIG    1       17.403  37.132 208.404  0.00  0.00    +0.028 A 
ENDBRANCH  11  16
BRANCH  10  22
ATOM     22  N   LIG    1       18.834  40.306 207.205  0.00  0.00    -0.343 N 
ATOM     23  H   LIG    1       17.941  40.775 207.013  0.00  0.00    +0.144 HD
ATOM     24  H   LIG    1       19.645  40.571 206.629  0.00  0.00    +0.144 HD
ENDBRANCH  10  22
ENDBRANCH   1  14
BRANCH   8  25
ATOM     25  C   LIG    1       23.603  44.380 211.228  0.00  0.00    +0.183 C 
BRANCH  25  26
ATOM     26  C   LIG    1       23.977  44.802 209.813  0.00  0.00    +0.009 A 
ATOM     27  C   LIG    1       25.214  44.471 209.262  0.00  0.00    +0.128 A 
ATOM     28  F   LIG    1       26.114  43.769 209.995  0.00  0.00    -0.205 F 
ATOM     29  C   LIG    1       25.584  44.843 207.976  0.00  0.00    +0.039 A 
ATOM     30  C   LIG    1       24.689  45.580 207.206  0.00  0.00    +0.003 A 
ATOM     31  C   LIG    1       23.447  45.931 207.734  0.00  0.00    +0.000 A 
ATOM     32  C   LIG    1       23.093  45.546 209.027  0.00  0.00    +0.008 A 
ENDBRANCH  25  26
ENDBRANCH   8  25
TORSDOF 5
ENDMDL
MODEL 5
REMARK VINA RESULT:      -8.1     27.668     31.547
REMARK  Name = ZINC000000603759
REMARK                            x       y       z     vdW  Elec       q    Type
REMARK                         _______ _______ _______ _____ _____    ______ ____
ROOT
ATOM      1  C   LIG    1       27.945  24.734 208.196  0.00  0.00    +0.139 A 
ATOM      2  C   LIG    1       28.603  23.682 207.503  0.00  0.00    +0.050 A 
ATOM      3  C   LIG    1       29.206  22.461 207.855  0.00  0.00    +0.015 A 
ATOM      4  C   LIG    1       29.754  21.705 206.837  0.00  0.00    +0.020 A 
ATOM      5  C   LIG    1       29.702  22.159 205.498  0.00  0.00    +0.113 A 
ATOM      6  N   LIG    1       29.138  23.302 205.157  0.00  0.00    -0.236 NA
ATOM      7  C   LIG    1       28.599  24.026 206.171  0.00  0.00    +0.159 A 
ATOM      8  N   LIG    1       27.954  25.228 206.100  0.00  0.00    -0.241 N 
ATOM      9  N   LIG    1       27.560  25.666 207.327  0.00  0.00    -0.165 NA
ENDROOT
BRANCH   1  14
ATOM     10  C   LIG    1       27.064  23.789 211.604  0.00  0.00    +0.128 A 
ATOM     11  C   LIG    1       27.300  24.953 212.347  0.00  0.00    +0.040 A 
ATOM     12  C   LIG    1       27.761  26.043 211.625  0.00  0.00    +0.125 A 
ATOM     13  N   LIG    1       27.958  25.961 210.319  0.00  0.00    -0.234 NA
ATOM     14  C   LIG    1       27.716  24.801 209.651  0.00  0.00    +0.183 A 
ATOM     15  N   LIG    1       27.267  23.718 210.310  0.00  0.00    -0.211 NA
BRANCH  11  16
ATOM     16  C   LIG    1       27.086  25.028 213.785  0.00  0.00    -0.010 A 
ATOM     17  C   LIG    1       25.804  25.033 214.336  0.00  0.00    +0.028 A 
ATOM     18  C   LIG    1       25.636  25.102 215.713  0.00  0.00    +0.111 A 
ATOM     19  N   LIG    1       26.677  25.166 216.542  0.00  0.00    -0.263 NA
ATOM     20  C   LIG    1       27.914  25.163 216.048  0.00  0.00    +0.111 A 
ATOM     21  C   LIG    1       28.154  25.094 214.682  0.00  0.00    +0.028 A 
ENDBRANCH  11  16
BRANCH  10  22
ATOM     22  N   LIG    1       26.592  22.639 212.142  0.00  0.00    -0.343 N 
ATOM     23  H   LIG    1       26.298  22.668 213.126  0.00  0.00    +0.144 HD
ATOM     24  H   LIG    1       26.020  22.084 211.491  0.00  0.00    +0.144 HD
ENDBRANCH  10  22
ENDBRANCH   1  14
BRANCH   8  25
ATOM     25  C   LIG    1       27.696  25.971 204.870  0.00  0.00    +0.183 C 
BRANCH  25  26
ATOM     26  C   LIG    1       26.186  26.011 204.674  0.00  0.00    +0.009 A 
ATOM     27  C   LIG    1       25.431  27.104 205.095  0.00  0.00    +0.128 A 
ATOM     28  F   LIG    1       26.040  28.154 205.701  0.00  0.00    -0.205 F 
ATOM     29  C   LIG    1       24.052  27.168 204.933  0.00  0.00    +0.039 A 
ATOM     30  C   LIG    1       23.397  26.098 204.331  0.00  0.00    +0.003 A 
ATOM     31  C   LIG    1       24.126  24.989 203.906  0.00  0.00    +0.000 A 
ATOM     32  C   LIG    1       25.509  24.943 204.076  0.00  0.00    +0.008 A 
ENDBRANCH  25  26
ENDBRANCH   8  25
TORSDOF 5
ENDMDL
MODEL 6
REMARK VINA RESULT:      -8.1     24.613     26.682
REMARK  Name = ZINC000000603759
REMARK                            x       y       z     vdW  Elec       q    Type
REMARK                         _______ _______ _______ _____ _____    ______ ____
ROOT
ATOM      1  C   LIG    1       22.083  41.271 209.690  0.00  0.00    +0.139 A 
ATOM      2  C   LIG    1       22.516  41.767 210.951  0.00  0.00    +0.050 A 
ATOM      3  C   LIG    1       22.014  41.765 212.265  0.00  0.00    +0.015 A 
ATOM      4  C   LIG    1       22.775  42.383 213.238  0.00  0.00    +0.020 A 
ATOM      5  C   LIG    1       24.010  42.991 212.905  0.00  0.00    +0.113 A 
ATOM      6  N   LIG    1       24.490  42.996 211.676  0.00  0.00    -0.236 NA
ATOM      7  C   LIG    1       23.730  42.377 210.736  0.00  0.00    +0.159 A 
ATOM      8  N   LIG    1       23.989  42.231 209.404  0.00  0.00    -0.241 N 
ATOM      9  N   LIG    1       22.990  41.565 208.762  0.00  0.00    -0.165 NA
ENDROOT
BRANCH   1  14
ATOM     10  C   LIG    1       19.302  38.942 210.043  0.00  0.00    +0.128 A 
ATOM     11  C   LIG    1       18.494  39.212 208.931  0.00  0.00    +0.040 A 
ATOM     12  C   LIG    1       18.954  40.207 208.083  0.00  0.00    +0.125 A 
ATOM     13  N   LIG    1       20.086  40.847 208.332  0.00  0.00    -0.234 NA
ATOM     14  C   LIG    1       20.826  40.544 209.433  0.00  0.00    +0.183 A 
ATOM     15  N   LIG    1       20.420  39.585 210.284  0.00  0.00    -0.211 NA
BRANCH  11  16
ATOM     16  C   LIG    1       17.248  38.507 208.670  0.00  0.00    -0.010 A 
ATOM     17  C   LIG    1       17.233  37.207 208.165  0.00  0.00    +0.028 A 
ATOM     18  C   LIG    1       16.026  36.561 207.931  0.00  0.00    +0.111 A 
ATOM     19  N   LIG    1       14.858  37.153 208.178  0.00  0.00    -0.263 NA
ATOM     20  C   LIG    1       14.837  38.394 208.662  0.00  0.00    +0.111 A 
ATOM     21  C   LIG    1       16.007  39.097 208.920  0.00  0.00    +0.028 A 
ENDBRANCH  11  16
BRANCH  10  22
ATOM     22  N   LIG    1       19.017  37.988 210.962  0.00  0.00    -0.343 N 
ATOM     23  H   LIG    1       18.036  37.697 211.047  0.00  0.00    +0.144 HD
ATOM     24  H   LIG    1       19.739  37.257 211.033  0.00  0.00    +0.144 HD
ENDBRANCH  10  22
ENDBRANCH   1  14
BRANCH   8  25
ATOM     25  C   LIG    1       25.190  42.710 208.724  0.00  0.00    +0.183 C 
BRANCH  25  26
ATOM     26  C   LIG    1       25.027  44.211 208.523  0.00  0.00    +0.009 A 
ATOM     27  C   LIG    1       25.892  45.120 209.129  0.00  0.00    +0.128 A 
ATOM     28  F   LIG    1       26.895  44.672 209.925  0.00  0.00    -0.205 F 
ATOM     29  C   LIG    1       25.767  46.495 208.967  0.00  0.00    +0.039 A 
ATOM     30  C   LIG    1       24.736  46.986 208.172  0.00  0.00    +0.003 A 
ATOM     31  C   LIG    1       23.852  46.100 207.558  0.00  0.00    +0.000 A 
ATOM     32  C   LIG    1       23.994  44.723 207.732  0.00  0.00    +0.008 A 
ENDBRANCH  25  26
ENDBRANCH   8  25
TORSDOF 5
ENDMDL
MODEL 7
REMARK VINA RESULT:      -8.0     25.521     27.390
REMARK  Name = ZINC000000603759
REMARK                            x       y       z     vdW  Elec       q    Type
REMARK                         _______ _______ _______ _____ _____    ______ ____
ROOT
ATOM      1  C   LIG    1       18.334  39.291 209.949  0.00  0.00    +0.139 A 
ATOM      2  C   LIG    1       17.661  38.794 211.098  0.00  0.00    +0.050 A 
ATOM      3  C   LIG    1       17.914  38.755 212.481  0.00  0.00    +0.015 A 
ATOM      4  C   LIG    1       16.965  38.154 213.286  0.00  0.00    +0.020 A 
ATOM      5  C   LIG    1       15.790  37.604 212.720  0.00  0.00    +0.113 A 
ATOM      6  N   LIG    1       15.542  37.638 211.426  0.00  0.00    -0.236 NA
ATOM      7  C   LIG    1       16.484  38.239 210.653  0.00  0.00    +0.159 A 
ATOM      8  N   LIG    1       16.477  38.417 209.299  0.00  0.00    -0.241 N 
ATOM      9  N   LIG    1       17.601  39.050 208.865  0.00  0.00    -0.165 NA
ENDROOT
BRANCH   1  14
ATOM     10  C   LIG    1       21.929  39.863 209.772  0.00  0.00    +0.128 A 
ATOM     11  C   LIG    1       22.057  41.250 209.927  0.00  0.00    +0.040 A 
ATOM     12  C   LIG    1       20.871  41.947 210.095  0.00  0.00    +0.125 A 
ATOM     13  N   LIG    1       19.706  41.318 210.101  0.00  0.00    -0.234 NA
ATOM     14  C   LIG    1       19.644  39.969 209.940  0.00  0.00    +0.183 A 
ATOM     15  N   LIG    1       20.769  39.251 209.776  0.00  0.00    -0.211 NA
BRANCH  11  16
ATOM     16  C   LIG    1       23.343  41.931 209.912  0.00  0.00    -0.010 A 
ATOM     17  C   LIG    1       23.858  42.498 208.745  0.00  0.00    +0.028 A 
ATOM     18  C   LIG    1       25.087  43.144 208.767  0.00  0.00    +0.111 A 
ATOM     19  N   LIG    1       25.806  43.244 209.884  0.00  0.00    -0.263 NA
ATOM     20  C   LIG    1       25.341  42.714 211.015  0.00  0.00    +0.111 A 
ATOM     21  C   LIG    1       24.120  42.055 211.065  0.00  0.00    +0.028 A 
ENDBRANCH  11  16
BRANCH  10  22
ATOM     22  N   LIG    1       22.983  39.027 209.620  0.00  0.00    -0.343 N 
ATOM     23  H   LIG    1       23.194  38.705 208.668  0.00  0.00    +0.144 HD
ATOM     24  H   LIG    1       23.780  39.252 210.233  0.00  0.00    +0.144 HD
ENDBRANCH  10  22
ENDBRANCH   1  14
BRANCH   8  25
ATOM     25  C   LIG    1       15.403  37.998 208.403  0.00  0.00    +0.183 C 
BRANCH  25  26
ATOM     26  C   LIG    1       15.488  36.483 208.271  0.00  0.00    +0.009 A 
ATOM     27  C   LIG    1       16.577  35.871 207.651  0.00  0.00    +0.128 A 
ATOM     28  F   LIG    1       17.580  36.630 207.144  0.00  0.00    -0.205 F 
ATOM     29  C   LIG    1       16.681  34.493 207.513  0.00  0.00    +0.039 A 
ATOM     30  C   LIG    1       15.658  33.689 208.008  0.00  0.00    +0.003 A 
ATOM     31  C   LIG    1       14.554  34.274 208.626  0.00  0.00    +0.000 A 
ATOM     32  C   LIG    1       14.468  35.660 208.756  0.00  0.00    +0.008 A 
ENDBRANCH  25  26
ENDBRANCH   8  25
TORSDOF 5
ENDMDL
MODEL 8
REMARK VINA RESULT:      -7.9     25.984     28.796
REMARK  Name = ZINC000000603759
REMARK                            x       y       z     vdW  Elec       q    Type
REMARK                         _______ _______ _______ _____ _____    ______ ____
ROOT
ATOM      1  C   LIG    1       38.895  21.666 192.105  0.00  0.00    +0.139 A 
ATOM      2  C   LIG    1       38.828  21.066 193.392  0.00  0.00    +0.050 A 
ATOM      3  C   LIG    1       38.073  20.043 193.993  0.00  0.00    +0.015 A 
ATOM      4  C   LIG    1       38.328  19.759 195.320  0.00  0.00    +0.020 A 
ATOM      5  C   LIG    1       39.315  20.483 196.032  0.00  0.00    +0.113 A 
ATOM      6  N   LIG    1       40.030  21.442 195.477  0.00  0.00    -0.236 NA
ATOM      7  C   LIG    1       39.769  21.701 194.169  0.00  0.00    +0.159 A 
ATOM      8  N   LIG    1       40.360  22.626 193.358  0.00  0.00    -0.241 N 
ATOM      9  N   LIG    1       39.829  22.613 192.104  0.00  0.00    -0.165 NA
ENDROOT
BRANCH   1  14
ATOM     10  C   LIG    1       37.902  20.640 188.752  0.00  0.00    +0.128 A 
ATOM     11  C   LIG    1       36.502  20.652 188.797  0.00  0.00    +0.040 A 
ATOM     12  C   LIG    1       35.944  21.025 190.010  0.00  0.00    +0.125 A 
ATOM     13  N   LIG    1       36.708  21.344 191.043  0.00  0.00    -0.234 NA
ATOM     14  C   LIG    1       38.064  21.309 190.940  0.00  0.00    +0.183 A 
ATOM     15  N   LIG    1       38.650  20.954 189.782  0.00  0.00    -0.211 NA
BRANCH  11  16
ATOM     16  C   LIG    1       35.671  20.293 187.657  0.00  0.00    -0.010 A 
ATOM     17  C   LIG    1       35.259  18.978 187.435  0.00  0.00    +0.028 A 
ATOM     18  C   LIG    1       34.464  18.671 186.339  0.00  0.00    +0.111 A 
ATOM     19  N   LIG    1       34.073  19.607 185.475  0.00  0.00    -0.263 NA
ATOM     20  C   LIG    1       34.448  20.872 185.659  0.00  0.00    +0.111 A 
ATOM     21  C   LIG    1       35.242  21.248 186.734  0.00  0.00    +0.028 A 
ENDBRANCH  11  16
BRANCH  10  22
ATOM     22  N   LIG    1       38.612  20.323 187.643  0.00  0.00    -0.343 N 
ATOM     23  H   LIG    1       39.307  19.571 187.730  0.00  0.00    +0.144 HD
ATOM     24  H   LIG    1       38.060  20.362 186.775  0.00  0.00    +0.144 HD
ENDBRANCH  10  22
ENDBRANCH   1  14
BRANCH   8  25
ATOM     25  C   LIG    1       41.439  23.525 193.756  0.00  0.00    +0.183 C 
BRANCH  25  26
ATOM     26  C   LIG    1       40.840  24.563 194.697  0.00  0.00    +0.009 A 
ATOM     27  C   LIG    1       41.375  24.782 195.966  0.00  0.00    +0.128 A 
ATOM     28  F   LIG    1       42.441  24.056 196.385  0.00  0.00    -0.205 F 
ATOM     29  C   LIG    1       40.849  25.718 196.847  0.00  0.00    +0.039 A 
ATOM     30  C   LIG    1       39.743  26.465 196.452  0.00  0.00    +0.003 A 
ATOM     31  C   LIG    1       39.184  26.262 195.191  0.00  0.00    +0.000 A 
ATOM     32  C   LIG    1       39.726  25.318 194.320  0.00  0.00    +0.008 A 
ENDBRANCH  25  26
ENDBRANCH   8  25
TORSDOF 5
ENDMDL
MODEL 9
REMARK VINA RESULT:      -7.9     24.523     28.834
REMARK  Name = ZINC000000603759
REMARK                            x       y       z     vdW  Elec       q    Type
REMARK                         _______ _______ _______ _____ _____    ______ ____
ROOT
ATOM      1  C   LIG    1       24.068  41.979 211.875  0.00  0.00    +0.139 A 
ATOM      2  C   LIG    1       23.407  41.069 211.006  0.00  0.00    +0.050 A 
ATOM      3  C   LIG    1       23.343  39.671 210.863  0.00  0.00    +0.015 A 
ATOM      4  C   LIG    1       22.553  39.170 209.847  0.00  0.00    +0.020 A 
ATOM      5  C   LIG    1       21.843  40.046 208.992  0.00  0.00    +0.113 A 
ATOM      6  N   LIG    1       21.894  41.358 209.118  0.00  0.00    -0.236 NA
ATOM      7  C   LIG    1       22.671  41.830 210.127  0.00  0.00    +0.159 A 
ATOM      8  N   LIG    1       22.894  43.129 210.483  0.00  0.00    -0.241 N 
ATOM      9  N   LIG    1       23.746  43.226 211.541  0.00  0.00    -0.165 NA
ENDROOT
BRANCH   1  14
ATOM     10  C   LIG    1       25.407  41.489 215.229  0.00  0.00    +0.128 A 
ATOM     11  C   LIG    1       26.674  40.935 215.007  0.00  0.00    +0.040 A 
ATOM     12  C   LIG    1       27.026  40.752 213.679  0.00  0.00    +0.125 A 
ATOM     13  N   LIG    1       26.197  41.086 212.702  0.00  0.00    -0.234 NA
ATOM     14  C   LIG    1       24.975  41.616 212.979  0.00  0.00    +0.183 A 
ATOM     15  N   LIG    1       24.591  41.813 214.254  0.00  0.00    -0.211 NA
BRANCH  11  16
ATOM     16  C   LIG    1       27.575  40.564 216.089  0.00  0.00    -0.010 A 
ATOM     17  C   LIG    1       27.574  39.280 216.636  0.00  0.00    +0.028 A 
ATOM     18  C   LIG    1       28.449  38.959 217.666  0.00  0.00    +0.111 A 
ATOM     19  N   LIG    1       29.306  39.853 218.159  0.00  0.00    -0.263 NA
ATOM     20  C   LIG    1       29.332  41.087 217.658  0.00  0.00    +0.111 A 
ATOM     21  C   LIG    1       28.486  41.475 216.628  0.00  0.00    +0.028 A 
ENDBRANCH  11  16
BRANCH  10  22
ATOM     22  N   LIG    1       24.911  41.756 216.461  0.00  0.00    -0.343 N 
ATOM     23  H   LIG    1       23.928  41.514 216.634  0.00  0.00    +0.144 HD
ATOM     24  H   LIG    1       25.584  41.587 217.221  0.00  0.00    +0.144 HD
ENDBRANCH  10  22
ENDBRANCH   1  14
BRANCH   8  25
ATOM     25  C   LIG    1       22.296  44.293 209.834  0.00  0.00    +0.183 C 
BRANCH  25  26
ATOM     26  C   LIG    1       23.407  45.010 209.078  0.00  0.00    +0.009 A 
ATOM     27  C   LIG    1       23.876  46.256 209.493  0.00  0.00    +0.128 A 
ATOM     28  F   LIG    1       23.333  46.855 210.582  0.00  0.00    -0.205 F 
ATOM     29  C   LIG    1       24.885  46.936 208.823  0.00  0.00    +0.039 A 
ATOM     30  C   LIG    1       25.450  46.355 207.691  0.00  0.00    +0.003 A 
ATOM     31  C   LIG    1       24.996  45.113 207.250  0.00  0.00    +0.000 A 
ATOM     32  C   LIG    1       23.982  44.445 207.937  0.00  0.00    +0.008 A 
ENDBRANCH  25  26
ENDBRANCH   8  25
TORSDOF 5
ENDMDL
