REMARK VINA RESULT:      -7.1     29.613     31.342
REMARK  Name = ZINC000006087397
REMARK                            x       y       z     vdW  Elec       q    Type
REMARK                         _______ _______ _______ _____ _____    ______ ____
ROOT
ATOM      1  C   LIG    1       37.841  21.193 192.668  0.00  0.00    +0.214 C 
ENDROOT
BRANCH   1   7
ATOM      2  C   LIG    1       42.278  22.389 194.187  0.00  0.00    +0.010 C 
ATOM      3  C   LIG    1       41.563  23.702 194.575  0.00  0.00    +0.018 C 
ATOM      4  C   LIG    1       40.013  23.518 194.672  0.00  0.00    +0.115 C 
ATOM      5  C   LIG    1       39.413  23.026 193.359  0.00  0.00    +0.247 C 
ATOM      6  O   LIG    1       39.493  23.500 192.240  0.00  0.00    -0.273 OA
ATOM      7  N   LIG    1       38.715  21.887 193.622  0.00  0.00    -0.215 N 
ATOM      8  C   LIG    1       38.831  21.553 194.946  0.00  0.00    +0.310 C 
ATOM      9  O   LIG    1       38.304  20.599 195.486  0.00  0.00    -0.252 OA
ATOM     10  N   LIG    1       39.634  22.437 195.572  0.00  0.00    -0.285 N 
ATOM     11  H   LIG    1       39.625  22.498 196.595  0.00  0.00    +0.151 HD
ATOM     12  C   LIG    1       39.315  24.833 195.102  0.00  0.00    +0.035 C 
ATOM     13  C   LIG    1       39.901  25.316 196.443  0.00  0.00    +0.003 C 
ATOM     14  C   LIG    1       41.422  25.504 196.355  0.00  0.00    +0.000 C 
ATOM     15  C   LIG    1       42.112  24.203 195.926  0.00  0.00    +0.006 C 
ENDBRANCH   1   7
BRANCH   1  16
ATOM     16  C   LIG    1       38.701  20.156 191.938  0.00  0.00    +0.238 C 
ATOM     17  N   LIG    1       39.040  20.279 190.583  0.00  0.00    -0.267 N 
ATOM     18  O   LIG    1       39.083  19.171 192.546  0.00  0.00    -0.274 OA
BRANCH  17  19
ATOM     19  C   LIG    1       39.897  19.345 189.918  0.00  0.00    +0.010 C 
ATOM     20  C   LIG    1       39.287  17.993 189.574  0.00  0.00    +0.051 C 
ATOM     21  C   LIG    1       40.442  16.981 189.411  0.00  0.00    +0.006 C 
ATOM     22  C   LIG    1       41.409  17.558 188.358  0.00  0.00    +0.004 C 
ATOM     23  C   LIG    1       42.172  18.739 188.998  0.00  0.00    +0.029 C 
ATOM     24  C   LIG    1       41.171  19.684 189.640  0.00  0.00    -0.008 C 
ENDBRANCH  17  19
BRANCH  17  25
ATOM     25  C   LIG    1       38.554  21.413 189.771  0.00  0.00    +0.187 C 
BRANCH  25  26
ATOM     26  C   LIG    1       37.401  20.864 188.952  0.00  0.00    +0.122 A 
ATOM     27  O   LIG    1       37.468  20.822 187.593  0.00  0.00    -0.466 OA
ATOM     28  C   LIG    1       36.306  20.282 187.146  0.00  0.00    +0.195 A 
ATOM     29  C   LIG    1       35.513  19.984 188.199  0.00  0.00    +0.041 A 
ATOM     30  C   LIG    1       36.212  20.354 189.352  0.00  0.00    +0.046 A 
ENDBRANCH  25  26
ENDBRANCH  17  25
ENDBRANCH   1  16
TORSDOF 5
