REMARK VINA RESULT:      -8.9      1.724      8.426
REMARK  Name = ZINC000049421769
REMARK                            x       y       z     vdW  Elec       q    Type
REMARK                         _______ _______ _______ _____ _____    ______ ____
ROOT
ATOM      1  C   LIG    1       19.946  46.987 189.615  0.00  0.00    +0.088 C 
ATOM      2  C   LIG    1       20.617  46.814 188.270  0.00  0.00    +0.135 A 
ATOM      3  N   LIG    1       20.414  47.543 187.149  0.00  0.00    -0.276 N 
ATOM      4  C   LIG    1       19.561  48.661 186.831  0.00  0.00    +0.075 A 
ATOM      5  C   LIG    1       18.645  49.220 187.738  0.00  0.00    +0.028 A 
ATOM      6  C   LIG    1       17.879  50.308 187.346  0.00  0.00    +0.002 A 
ATOM      7  C   LIG    1       18.017  50.840 186.062  0.00  0.00    +0.002 A 
ATOM      8  C   LIG    1       18.916  50.281 185.166  0.00  0.00    +0.030 A 
ATOM      9  C   LIG    1       19.696  49.178 185.529  0.00  0.00    +0.089 A 
ATOM     10  N   LIG    1       20.568  48.636 184.587  0.00  0.00    -0.235 NA
ATOM     11  C   LIG    1       21.300  47.621 184.914  0.00  0.00    +0.143 A 
ATOM     12  C   LIG    1       21.245  47.028 186.226  0.00  0.00    +0.194 A 
ATOM     13  N   LIG    1       21.917  46.029 186.741  0.00  0.00    -0.127 NA
ATOM     14  N   LIG    1       21.512  45.907 188.029  0.00  0.00    -0.134 NA
ENDROOT
BRANCH  11  15
ATOM     15  S   LIG    1       22.392  46.961 183.728  0.00  0.00    -0.093 S 
BRANCH  15  16
ATOM     16  C   LIG    1       21.483  45.499 183.079  0.00  0.00    +0.172 C 
BRANCH  16  17
ATOM     17  C   LIG    1       22.395  44.307 183.301  0.00  0.00    +0.227 C 
ATOM     18  N   LIG    1       23.499  44.506 184.089  0.00  0.00    -0.284 N 
ATOM     19  H   LIG    1       23.690  45.474 184.377  0.00  0.00    +0.155 HD
ATOM     20  O   LIG    1       22.190  43.225 182.795  0.00  0.00    -0.275 OA
BRANCH  18  21
ATOM     21  C   LIG    1       24.496  43.541 184.359  0.00  0.00    +0.039 A 
ATOM     22  C   LIG    1       25.596  43.471 183.491  0.00  0.00    -0.029 A 
ATOM     23  C   LIG    1       25.709  44.362 182.265  0.00  0.00    +0.045 C 
ATOM     24  C   LIG    1       26.597  42.539 183.757  0.00  0.00    +0.005 A 
ATOM     25  C   LIG    1       26.504  41.698 184.862  0.00  0.00    +0.001 A 
ATOM     26  C   LIG    1       25.409  41.780 185.717  0.00  0.00    +0.005 A 
ATOM     27  C   LIG    1       24.394  42.704 185.483  0.00  0.00    -0.029 A 
ATOM     28  C   LIG    1       23.220  42.770 186.444  0.00  0.00    +0.045 C 
ENDBRANCH  18  21
ENDBRANCH  16  17
ENDBRANCH  15  16
ENDBRANCH  11  15
TORSDOF 4
