REMARK VINA RESULT:      -8.0      5.651      8.505
REMARK  Name = ZINC000049483826
REMARK                            x       y       z     vdW  Elec       q    Type
REMARK                         _______ _______ _______ _____ _____    ______ ____
ROOT
ATOM      1  N   LIG    1       34.437  19.896 186.535  0.00  0.00    -0.175 NA
ATOM      2  C   LIG    1       33.923  18.550 186.808  0.00  0.00    +0.123 C 
ATOM      3  C   LIG    1       33.283  18.611 185.398  0.00  0.00    +0.109 C 
ATOM      4  C   LIG    1       33.477  20.148 185.455  0.00  0.00    +0.123 C 
ENDROOT
BRANCH   3   5
ATOM      5  C   LIG    1       31.828  18.206 185.400  0.00  0.00    +0.233 A 
ATOM      6  O   LIG    1       31.128  18.323 186.508  0.00  0.00    -0.337 OA
ATOM      7  N   LIG    1       29.903  17.912 186.260  0.00  0.00    -0.056 NA
ATOM      8  C   LIG    1       29.902  17.565 185.018  0.00  0.00    +0.209 A 
ATOM      9  N   LIG    1       31.122  17.745 184.450  0.00  0.00    -0.191 NA
BRANCH   8  10
ATOM     10  C   LIG    1       28.737  17.045 184.315  0.00  0.00    +0.060 A 
ATOM     11  S   LIG    1       28.879  15.832 183.076  0.00  0.00    -0.093 S 
ATOM     12  C   LIG    1       27.172  15.822 182.826  0.00  0.00    +0.046 A 
ATOM     13  C   LIG    1       26.534  16.703 183.652  0.00  0.00    +0.008 A 
ATOM     14  C   LIG    1       27.418  17.395 184.493  0.00  0.00    +0.019 A 
ENDBRANCH   8  10
ENDBRANCH   3   5
BRANCH   1  15
ATOM     15  S   LIG    1       36.044  20.209 186.392  0.00  0.00    +0.061 S 
ATOM     16  O   LIG    1       36.466  19.865 185.080  0.00  0.00    -0.153 OA
ATOM     17  O   LIG    1       36.261  21.557 186.792  0.00  0.00    -0.153 OA
BRANCH  15  20
ATOM     18  C   LIG    1       36.056  20.521 189.581  0.00  0.00    +0.046 C 
ATOM     19  C   LIG    1       36.791  19.330 188.986  0.00  0.00    -0.024 A 
ATOM     20  C   LIG    1       36.841  19.106 187.595  0.00  0.00    +0.110 A 
ATOM     21  C   LIG    1       37.529  17.987 187.117  0.00  0.00    +0.048 A 
ATOM     22  C   LIG    1       38.161  17.109 187.994  0.00  0.00    +0.043 A 
ATOM     23 CL   LIG    1       39.013  15.735 187.376  0.00  0.00    -0.083 Cl
ATOM     24  C   LIG    1       38.109  17.335 189.366  0.00  0.00    +0.020 A 
ATOM     25  C   LIG    1       37.426  18.440 189.855  0.00  0.00    +0.007 A 
ENDBRANCH  15  20
ENDBRANCH   1  15
TORSDOF 4
