REMARK VINA RESULT:      -8.2     26.014     27.315
REMARK  Name = ZINC000186872603
REMARK                            x       y       z     vdW  Elec       q    Type
REMARK                         _______ _______ _______ _____ _____    ______ ____
ROOT
ATOM      1  N   LIG    1       30.386  18.134 184.469  0.00  0.00    -0.297 N 
ATOM      2  C   LIG    1       30.534  17.835 185.918  0.00  0.00    +0.123 C 
ATOM      3  C   LIG    1       31.176  19.067 186.605  0.00  0.00    +0.103 C 
ATOM      4  N   LIG    1       32.501  19.379 185.993  0.00  0.00    -0.299 NA
ATOM      5  C   LIG    1       32.311  19.688 184.540  0.00  0.00    +0.103 C 
ATOM      6  C   LIG    1       31.653  18.502 183.784  0.00  0.00    +0.123 C 
ENDROOT
BRANCH   1  10
ATOM      7  C   LIG    1       26.145  15.951 184.428  0.00  0.00    +0.066 C 
ATOM      8  C   LIG    1       27.387  16.406 183.701  0.00  0.00    +0.044 A 
ATOM      9  N   LIG    1       28.314  17.045 184.383  0.00  0.00    -0.220 NA
ATOM     10  C   LIG    1       29.415  17.456 183.743  0.00  0.00    +0.218 A 
ATOM     11  N   LIG    1       29.632  17.249 182.439  0.00  0.00    -0.219 NA
ATOM     12  C   LIG    1       28.718  16.612 181.727  0.00  0.00    +0.049 A 
ATOM     13  C   LIG    1       27.559  16.170 182.347  0.00  0.00    +0.046 A 
BRANCH  12  14
ATOM     14  C   LIG    1       28.947  16.371 180.238  0.00  0.00    +0.032 C 
ATOM     15  C   LIG    1       30.391  16.756 179.880  0.00  0.00    +0.014 C 
ATOM     16  C   LIG    1       27.944  17.207 179.429  0.00  0.00    +0.014 C 
ENDBRANCH  12  14
ENDBRANCH   1  10
BRANCH   4  17
ATOM     17  C   LIG    1       33.516  18.344 186.278  0.00  0.00    +0.085 C 
BRANCH  17  18
ATOM     18  C   LIG    1       34.236  18.836 187.547  0.00  0.00    +0.025 C 
BRANCH  18  19
ATOM     19  C   LIG    1       35.202  19.970 187.154  0.00  0.00    +0.097 C 
BRANCH  19  20
ATOM     20  C   LIG    1       35.901  20.464 188.403  0.00  0.00    +0.197 A 
ATOM     21  O   LIG    1       37.259  20.551 188.408  0.00  0.00    -0.440 OA
ATOM     22  C   LIG    1       37.566  21.016 189.622  0.00  0.00    +0.155 A 
ATOM     23  C   LIG    1       38.815  21.299 190.171  0.00  0.00    +0.048 A 
ATOM     24  C   LIG    1       38.850  21.781 191.476  0.00  0.00    +0.004 A 
ATOM     25  C   LIG    1       37.654  21.969 192.199  0.00  0.00    +0.002 A 
ATOM     26  C   LIG    1       36.421  21.677 191.620  0.00  0.00    +0.031 A 
ATOM     27  C   LIG    1       36.390  21.194 190.309  0.00  0.00    +0.110 A 
ATOM     28  N   LIG    1       35.342  20.832 189.495  0.00  0.00    -0.213 NA
ENDBRANCH  19  20
ENDBRANCH  18  19
ENDBRANCH  17  18
ENDBRANCH   4  17
TORSDOF 6
