REMARK VINA RESULT:      -6.6      3.754      5.987
REMARK  Name = ZINC000006082796
REMARK                            x       y       z     vdW  Elec       q    Type
REMARK                         _______ _______ _______ _____ _____    ______ ____
ROOT
ATOM      1  N   LIG    1       22.820  45.795 184.084  0.00  0.00    -0.306 N 
ENDROOT
BRANCH   1   2
ATOM      2  C   LIG    1       23.448  44.627 184.487  0.00  0.00    +0.133 A 
ATOM      3  C   LIG    1       24.623  44.132 183.870  0.00  0.00    +0.051 A 
ATOM      4  C   LIG    1       25.459  44.630 182.824  0.00  0.00    -0.025 A 
ATOM      5  C   LIG    1       25.258  45.947 182.094  0.00  0.00    +0.037 C 
ATOM      6  C   LIG    1       26.547  46.291 181.326  0.00  0.00    +0.005 C 
ATOM      7  C   LIG    1       27.070  45.083 180.532  0.00  0.00    +0.005 C 
ATOM      8  C   LIG    1       27.559  43.976 181.482  0.00  0.00    +0.043 C 
ATOM      9  C   LIG    1       26.481  43.775 182.526  0.00  0.00    -0.004 A 
ATOM     10  S   LIG    1       26.486  42.360 183.527  0.00  0.00    -0.073 S 
ATOM     11  C   LIG    1       25.080  42.920 184.363  0.00  0.00    +0.114 A 
ATOM     12  N   LIG    1       24.489  42.266 185.392  0.00  0.00    -0.228 NA
ATOM     13  C   LIG    1       23.428  42.826 185.919  0.00  0.00    +0.224 A 
ATOM     14  N   LIG    1       22.887  43.992 185.498  0.00  0.00    -0.220 NA
ENDBRANCH   1   2
BRANCH   1  16
ATOM     15  C   LIG    1       21.291  46.477 182.374  0.00  0.00    +0.024 C 
ATOM     16  C   LIG    1       21.422  45.612 183.630  0.00  0.00    +0.104 C 
ENDBRANCH   1  16
BRANCH   1  17
ATOM     17  C   LIG    1       22.951  46.883 185.122  0.00  0.00    +0.202 C 
BRANCH  17  18
ATOM     18  C   LIG    1       21.841  46.779 186.175  0.00  0.00    +0.231 C 
ATOM     19  N   LIG    1       22.163  46.234 187.346  0.00  0.00    -0.309 N 
ATOM     20  H   LIG    1       23.145  46.056 187.495  0.00  0.00    +0.149 HD
ATOM     21  O   LIG    1       20.701  47.185 185.972  0.00  0.00    -0.274 OA
BRANCH  19  22
ATOM     22  C   LIG    1       21.243  46.117 188.459  0.00  0.00    +0.146 C 
BRANCH  22  23
ATOM     23  C   LIG    1       21.995  45.257 189.447  0.00  0.00    +0.007 A 
ATOM     24  S   LIG    1       21.428  45.069 191.072  0.00  0.00    -0.100 S 
ATOM     25  C   LIG    1       22.758  44.032 191.450  0.00  0.00    +0.045 A 
ATOM     26  C   LIG    1       23.583  43.856 190.377  0.00  0.00    +0.008 A 
ATOM     27  C   LIG    1       23.150  44.555 189.237  0.00  0.00    +0.013 A 
ENDBRANCH  22  23
ENDBRANCH  19  22
ENDBRANCH  17  18
ENDBRANCH   1  17
TORSDOF 6
