REMARK VINA RESULT:      -6.3      1.516      2.196
REMARK  Name = ligand.pdb
REMARK  7 active torsions:
REMARK  status: ('A' for Active; 'I' for Inactive)
REMARK    1  A    between atoms: C1_1  and  C6_8
REMARK    2  A    between atoms: C2_3  and  C3_5
REMARK    3  A    between atoms: C2_3  and  C11_13
REMARK    4  A    between atoms: C3_5  and  C4_6
REMARK    5  A    between atoms: C3_5  and  C5_7
REMARK    6  A    between atoms: C6_8  and  C7_9
REMARK    7  A    between atoms: C6_8  and  C8_10
REMARK                            x       y       z     vdW  Elec       q    Type
REMARK                         _______ _______ _______ _____ _____    ______ ____
ROOT
ATOM      1  C8  IBP A 701      27.589  33.118 201.755  0.00  0.00    +0.000 A 
ATOM      2  C9  IBP A 701      28.150  33.925 200.738  0.00  0.00    +0.000 A 
ATOM      3  C10 IBP A 701      27.338  34.761 199.930  0.00  0.00    +0.000 A 
ATOM      4  C11 IBP A 701      25.930  34.822 200.107  0.00  0.00    +0.000 A 
ATOM      5  C12 IBP A 701      25.371  34.019 201.121  0.00  0.00    +0.000 A 
ATOM      6  C13 IBP A 701      26.183  33.182 201.932  0.00  0.00    +0.000 A 
ENDROOT
BRANCH   1   7
ATOM      7  C6  IBP A 701      28.496  32.205 202.615  0.00  0.00    +0.000 C 
ATOM      8  C7  IBP A 701      27.821  30.898 203.040  0.00  0.00    +0.000 C 
BRANCH   7   9
ATOM      9  C1  IBP A 701      28.974  32.995 203.823  0.00  0.00    +0.000 C 
ATOM     10  O1  IBP A 701      28.189  32.905 204.864  0.00  0.00    +0.000 OA
ATOM     11  O2  IBP A 701      29.992  33.679 203.831  0.00  0.00    +0.000 OA
ENDBRANCH   7   9
ENDBRANCH   1   7
BRANCH   4  12
ATOM     12  C2  IBP A 701      25.067  35.718 199.225  0.00  0.00    +0.000 C 
BRANCH  12  13
ATOM     13  C3  IBP A 701      25.740  36.207 197.936  0.00  0.00    +0.000 C 
ATOM     14  C4  IBP A 701      26.199  35.018 197.103  0.00  0.00    +0.000 C 
ATOM     15  C5  IBP A 701      26.926  37.095 198.239  0.00  0.00    +0.000 C 
ENDBRANCH  12  13
ENDBRANCH   4  12
TORSDOF 4
