REMARK VINA RESULT:      -6.7     28.466     31.301
REMARK  Name = ZINC000006083858
REMARK                            x       y       z     vdW  Elec       q    Type
REMARK                         _______ _______ _______ _____ _____    ______ ____
ROOT
ATOM      1  C   LIG    1       36.672  18.601 189.141  0.00  0.00    +0.257 A 
ATOM      2  C   LIG    1       37.354  19.856 188.859  0.00  0.00    +0.185 A 
ATOM      3  N   LIG    1       36.923  20.696 187.951  0.00  0.00    -0.225 NA
ATOM      4  C   LIG    1       35.773  20.330 187.292  0.00  0.00    +0.092 A 
ATOM      5  C   LIG    1       35.241  21.185 186.305  0.00  0.00    +0.030 A 
ATOM      6  C   LIG    1       34.089  20.847 185.625  0.00  0.00    +0.002 A 
ATOM      7  C   LIG    1       33.426  19.640 185.911  0.00  0.00    +0.002 A 
ATOM      8  C   LIG    1       33.924  18.787 186.873  0.00  0.00    +0.030 A 
ATOM      9  C   LIG    1       35.103  19.107 187.575  0.00  0.00    +0.093 A 
ATOM     10  N   LIG    1       35.586  18.221 188.521  0.00  0.00    -0.208 NA
ENDROOT
BRANCH   2  11
ATOM     11  N   LIG    1       38.540  20.193 189.526  0.00  0.00    -0.311 N 
ATOM     12  C   LIG    1       39.734  19.814 188.738  0.00  0.00    +0.131 C 
BRANCH  11  13
ATOM     13  C   LIG    1       38.577  21.500 190.254  0.00  0.00    +0.075 C 
ATOM     14  C   LIG    1       39.928  21.704 190.999  0.00  0.00    +0.022 C 
ATOM     15  C   LIG    1       40.130  20.616 192.076  0.00  0.00    +0.002 C 
ATOM     16  C   LIG    1       38.991  20.634 193.101  0.00  0.00    +0.000 C 
ATOM     17  C   LIG    1       37.649  20.457 192.385  0.00  0.00    +0.002 C 
ATOM     18  C   LIG    1       37.444  21.554 191.321  0.00  0.00    +0.022 C 
ENDBRANCH  11  13
ENDBRANCH   2  11
BRANCH   1  19
ATOM     19  O   LIG    1       37.194  17.752 190.095  0.00  0.00    -0.465 OA
BRANCH  19  20
ATOM     20  C   LIG    1       36.441  16.690 190.777  0.00  0.00    +0.326 C 
BRANCH  20  23
ATOM     21  N   LIG    1       35.497  16.994 192.999  0.00  0.00    -0.310 N 
ATOM     22  H   LIG    1       34.623  16.879 192.503  0.00  0.00    +0.149 HD
ATOM     23  C   LIG    1       36.612  16.906 192.272  0.00  0.00    +0.251 C 
ATOM     24  O   LIG    1       37.719  16.972 192.796  0.00  0.00    -0.272 OA
BRANCH  21  25
ATOM     25  C   LIG    1       35.431  17.153 194.438  0.00  0.00    +0.073 C 
ATOM     26  C   LIG    1       34.144  16.482 194.918  0.00  0.00    +0.028 C 
BRANCH  25  28
ATOM     27  C   LIG    1       34.259  19.099 195.579  0.00  0.00    +0.009 C 
ATOM     28  C   LIG    1       35.522  18.650 194.824  0.00  0.00    +0.003 C 
ATOM     29  C   LIG    1       36.757  19.022 195.669  0.00  0.00    +0.009 C 
ENDBRANCH  25  28
ENDBRANCH  21  25
ENDBRANCH  20  23
ENDBRANCH  19  20
ENDBRANCH   1  19
TORSDOF 7
