REMARK VINA RESULT:      -6.5      1.934      4.091
REMARK  Name = ZINC000000622877
REMARK                            x       y       z     vdW  Elec       q    Type
REMARK                         _______ _______ _______ _____ _____    ______ ____
ROOT
ATOM      1  O   LIG    1       29.695  25.675 209.013  0.00  0.00    -0.274 OA
ATOM      2  C   LIG    1       28.497  25.906 209.045  0.00  0.00    +0.235 C 
ATOM      3  N   LIG    1       27.646  25.206 208.244  0.00  0.00    -0.219 N 
ATOM      4  H   LIG    1       26.624  25.255 208.387  0.00  0.00    +0.176 HD
ENDROOT
BRANCH   3   5
ATOM      5  N   LIG    1       28.131  24.155 207.330  0.00  0.00    -0.217 N 
ATOM      6  C   LIG    1       28.130  22.793 207.672  0.00  0.00    +0.079 A 
ATOM      7  C   LIG    1       28.451  22.035 206.594  0.00  0.00    +0.078 A 
ATOM      8  S   LIG    1       28.797  22.971 205.176  0.00  0.00    -0.033 S 
ATOM      9  C   LIG    1       28.493  24.449 206.035  0.00  0.00    +0.308 A 
ATOM     10  O   LIG    1       28.594  25.612 205.587  0.00  0.00    -0.258 OA
BRANCH   6  11
ATOM     11  C   LIG    1       27.820  22.336 209.020  0.00  0.00    +0.001 A 
ATOM     12  C   LIG    1       26.512  21.983 209.379  0.00  0.00    +0.010 A 
ATOM     13  C   LIG    1       26.219  21.557 210.670  0.00  0.00    +0.001 A 
ATOM     14  C   LIG    1       27.229  21.474 211.623  0.00  0.00    +0.000 A 
ATOM     15  C   LIG    1       28.533  21.820 211.280  0.00  0.00    +0.001 A 
ATOM     16  C   LIG    1       28.825  22.246 209.990  0.00  0.00    +0.010 A 
ENDBRANCH   6  11
ENDBRANCH   3   5
BRANCH   2  17
ATOM     17  C   LIG    1       27.905  26.955 209.966  0.00  0.00    +0.132 C 
BRANCH  17  18
ATOM     18  C   LIG    1       27.292  26.242 211.164  0.00  0.00    -0.039 A 
ATOM     19  C   LIG    1       25.919  25.999 211.216  0.00  0.00    +0.005 A 
ATOM     20  C   LIG    1       25.366  25.331 212.304  0.00  0.00    +0.015 A 
ATOM     21  C   LIG    1       26.179  24.900 213.349  0.00  0.00    +0.018 A 
ATOM     22 BR   LIG    1       25.424  23.989 214.825  0.00  0.00    -0.050 Br
ATOM     23  C   LIG    1       27.549  25.143 213.302  0.00  0.00    +0.015 A 
ATOM     24  C   LIG    1       28.103  25.813 212.216  0.00  0.00    +0.005 A 
ENDBRANCH  17  18
ENDBRANCH   2  17
TORSDOF 4
