REMARK VINA RESULT:      -8.7      2.238      3.639
REMARK  Name = ZINC000006083766
REMARK                            x       y       z     vdW  Elec       q    Type
REMARK                         _______ _______ _______ _____ _____    ______ ____
ROOT
ATOM      1  O   LIG    1       32.365  18.331 185.410  0.00  0.00    -0.468 OA
ENDROOT
BRANCH   1   2
ATOM      2  C   LIG    1       31.804  17.862 184.268  0.00  0.00    +0.227 A 
ATOM      3  C   LIG    1       30.464  17.437 184.270  0.00  0.00    +0.073 A 
ATOM      4  C   LIG    1       29.478  17.383 185.297  0.00  0.00    -0.023 A 
ATOM      5  C   LIG    1       29.706  17.817 186.738  0.00  0.00    +0.037 C 
ATOM      6  C   LIG    1       28.337  17.931 187.435  0.00  0.00    +0.005 C 
ATOM      7  C   LIG    1       27.449  16.708 187.152  0.00  0.00    +0.005 C 
ATOM      8  C   LIG    1       27.040  16.654 185.670  0.00  0.00    +0.043 C 
ATOM      9  C   LIG    1       28.298  16.858 184.854  0.00  0.00    -0.004 A 
ATOM     10  S   LIG    1       28.342  16.440 183.170  0.00  0.00    -0.073 S 
ATOM     11  C   LIG    1       29.987  16.962 183.059  0.00  0.00    +0.116 A 
ATOM     12  N   LIG    1       30.748  16.918 181.939  0.00  0.00    -0.228 NA
ATOM     13  C   LIG    1       31.985  17.341 182.036  0.00  0.00    +0.226 A 
ATOM     14  N   LIG    1       32.545  17.817 183.182  0.00  0.00    -0.201 NA
ENDBRANCH   1   2
BRANCH   1  15
ATOM     15  C   LIG    1       33.800  18.282 185.660  0.00  0.00    +0.310 C 
BRANCH  15  17
ATOM     16  O   LIG    1       33.658  20.545 186.355  0.00  0.00    -0.288 OA
ATOM     17  C   LIG    1       34.187  19.466 186.540  0.00  0.00    +0.200 C 
BRANCH  17  18
ATOM     18  C   LIG    1       35.149  19.291 187.629  0.00  0.00    +0.025 A 
ATOM     19  C   LIG    1       35.736  18.040 187.902  0.00  0.00    +0.061 A 
ATOM     20  C   LIG    1       36.645  17.914 188.942  0.00  0.00    +0.163 A 
ATOM     21  O   LIG    1       37.232  16.690 189.183  0.00  0.00    -0.485 OA
ATOM     22  C   LIG    1       38.429  16.657 190.020  0.00  0.00    +0.270 C 
ATOM     23  C   LIG    1       38.131  17.512 191.263  0.00  0.00    +0.270 C 
ATOM     24  O   LIG    1       37.846  18.864 190.791  0.00  0.00    -0.485 OA
ATOM     25  C   LIG    1       36.972  19.014 189.741  0.00  0.00    +0.162 A 
ATOM     26  C   LIG    1       36.412  20.259 189.483  0.00  0.00    +0.050 A 
ATOM     27  C   LIG    1       35.505  20.393 188.435  0.00  0.00    +0.015 A 
ENDBRANCH  17  18
ENDBRANCH  15  17
ENDBRANCH   1  15
TORSDOF 4
