REMARK VINA RESULT:      -7.4     28.445     31.033
REMARK  Name = ZINC000000608130
REMARK                            x       y       z     vdW  Elec       q    Type
REMARK                         _______ _______ _______ _____ _____    ______ ____
ROOT
ATOM      1  C   LIG    1       28.658  15.619 197.470  0.00  0.00    +0.264 C 
ATOM      2  C   LIG    1       28.060  16.305 198.729  0.00  0.00    +0.145 C 
ATOM      3  C   LIG    1       28.111  17.843 198.759  0.00  0.00    +0.059 C 
ATOM      4  C   LIG    1       28.822  15.806 199.966  0.00  0.00    +0.059 C 
ATOM      5  O   LIG    1       26.686  15.897 198.886  0.00  0.00    -0.482 OA
ATOM      6  C   LIG    1       25.853  15.682 197.822  0.00  0.00    +0.132 A 
ATOM      7  C   LIG    1       24.501  15.469 198.104  0.00  0.00    +0.047 A 
ATOM      8  C   LIG    1       23.605  15.250 197.067  0.00  0.00    +0.015 A 
ATOM      9  C   LIG    1       24.053  15.242 195.738  0.00  0.00    +0.018 A 
ATOM     10  C   LIG    1       25.421  15.457 195.486  0.00  0.00    +0.149 A 
ATOM     11  O   LIG    1       25.871  15.461 194.177  0.00  0.00    -0.422 OA
ATOM     12  C   LIG    1       25.047  15.273 193.112  0.00  0.00    +0.337 A 
ATOM     13  O   LIG    1       25.547  15.312 192.000  0.00  0.00    -0.245 OA
ATOM     14  C   LIG    1       23.648  15.045 193.363  0.00  0.00    +0.092 A 
ATOM     15  C   LIG    1       23.161  15.028 194.630  0.00  0.00    +0.018 A 
ATOM     16  C   LIG    1       26.341  15.669 196.515  0.00  0.00    +0.081 A 
ATOM     17  C   LIG    1       27.811  15.900 196.201  0.00  0.00    +0.258 C 
ENDROOT
BRANCH   1  18
ATOM     18  O   LIG    1       30.039  16.089 197.261  0.00  0.00    -0.453 OA
BRANCH  18  19
ATOM     19  C   LIG    1       31.005  15.217 196.923  0.00  0.00    +0.310 C 
ATOM     20  O   LIG    1       30.959  14.059 197.335  0.00  0.00    -0.251 OA
BRANCH  19  21
ATOM     21  C   LIG    1       32.202  15.718 196.098  0.00  0.00    +0.094 C 
ATOM     22  C   LIG    1       32.284  17.259 196.106  0.00  0.00    +0.019 C 
BRANCH  21  24
ATOM     23  C   LIG    1       33.369  15.546 193.797  0.00  0.00    +0.004 C 
ATOM     24  C   LIG    1       32.164  15.151 194.664  0.00  0.00    +0.011 C 
ENDBRANCH  21  24
ENDBRANCH  19  21
ENDBRANCH  18  19
ENDBRANCH   1  18
BRANCH  17  25
ATOM     25  O   LIG    1       27.929  17.297 195.804  0.00  0.00    -0.453 OA
BRANCH  25  26
ATOM     26  C   LIG    1       28.502  17.647 194.654  0.00  0.00    +0.305 C 
ATOM     27  O   LIG    1       28.582  18.821 194.310  0.00  0.00    -0.251 OA
ATOM     28  C   LIG    1       29.033  16.540 193.768  0.00  0.00    +0.136 C 
ENDBRANCH  25  26
ENDBRANCH  17  25
TORSDOF 6
