REMARK VINA RESULT:      -7.3     28.233     30.372
REMARK  Name = ZINC000006087400
REMARK                            x       y       z     vdW  Elec       q    Type
REMARK                         _______ _______ _______ _____ _____    ______ ____
ROOT
ATOM      1  C   LIG    1       19.625  40.117 211.071  0.00  0.00    +0.214 C 
ENDROOT
BRANCH   1   7
ATOM      2  C   LIG    1       15.558  40.147 209.198  0.00  0.00    +0.010 C 
ATOM      3  C   LIG    1       15.803  38.733 208.626  0.00  0.00    +0.018 C 
ATOM      4  C   LIG    1       17.307  38.309 208.722  0.00  0.00    +0.115 C 
ATOM      5  C   LIG    1       17.935  38.530 210.103  0.00  0.00    +0.247 C 
ATOM      6  O   LIG    1       17.711  37.997 211.175  0.00  0.00    -0.273 OA
ATOM      7  N   LIG    1       18.894  39.488 209.967  0.00  0.00    -0.215 N 
ATOM      8  C   LIG    1       18.970  39.907 208.666  0.00  0.00    +0.310 C 
ATOM      9  O   LIG    1       19.688  40.799 208.254  0.00  0.00    -0.252 OA
ATOM     10  N   LIG    1       18.120  39.194 207.902  0.00  0.00    -0.285 N 
ATOM     11  H   LIG    1       17.838  39.566 206.988  0.00  0.00    +0.151 HD
ATOM     12  C   LIG    1       17.519  36.868 208.191  0.00  0.00    +0.035 C 
ATOM     13  C   LIG    1       16.608  35.889 208.955  0.00  0.00    +0.003 C 
ATOM     14  C   LIG    1       15.134  36.298 208.856  0.00  0.00    +0.000 C 
ATOM     15  C   LIG    1       14.927  37.722 209.388  0.00  0.00    +0.006 C 
ENDBRANCH   1   7
BRANCH   1  16
ATOM     16  C   LIG    1       20.979  39.413 211.185  0.00  0.00    +0.238 C 
ATOM     17  N   LIG    1       22.155  40.142 211.085  0.00  0.00    -0.267 N 
ATOM     18  O   LIG    1       21.053  38.207 211.370  0.00  0.00    -0.274 OA
BRANCH  17  19
ATOM     19  C   LIG    1       22.169  41.514 210.742  0.00  0.00    +0.010 C 
ATOM     20  C   LIG    1       22.761  41.841 209.383  0.00  0.00    +0.051 C 
ATOM     21  C   LIG    1       23.145  43.337 209.387  0.00  0.00    +0.006 C 
ATOM     22  C   LIG    1       21.899  44.139 209.816  0.00  0.00    +0.004 C 
ATOM     23  C   LIG    1       21.676  43.915 211.328  0.00  0.00    +0.029 C 
ATOM     24  C   LIG    1       21.666  42.422 211.599  0.00  0.00    -0.008 C 
ENDBRANCH  17  19
BRANCH  17  25
ATOM     25  C   LIG    1       23.449  39.460 211.268  0.00  0.00    +0.187 C 
BRANCH  25  26
ATOM     26  C   LIG    1       24.208  40.283 212.290  0.00  0.00    +0.122 A 
ATOM     27  O   LIG    1       23.747  40.399 213.567  0.00  0.00    -0.466 OA
ATOM     28  C   LIG    1       24.616  41.194 214.239  0.00  0.00    +0.195 A 
ATOM     29  C   LIG    1       25.612  41.578 213.410  0.00  0.00    +0.041 A 
ATOM     30  C   LIG    1       25.351  40.997 212.165  0.00  0.00    +0.046 A 
ENDBRANCH  25  26
ENDBRANCH  17  25
ENDBRANCH   1  16
TORSDOF 5
