REMARK VINA RESULT:      -7.2     26.123     28.536
REMARK  Name = ZINC000006087397
REMARK                            x       y       z     vdW  Elec       q    Type
REMARK                         _______ _______ _______ _____ _____    ______ ____
ROOT
ATOM      1  C   LIG    1       21.317  40.761 212.673  0.00  0.00    +0.214 C 
ENDROOT
BRANCH   1   7
ATOM      2  C   LIG    1       19.141  40.712 208.349  0.00  0.00    +0.010 C 
ATOM      3  C   LIG    1       18.657  39.330 208.844  0.00  0.00    +0.018 C 
ATOM      4  C   LIG    1       18.766  39.193 210.398  0.00  0.00    +0.115 C 
ATOM      5  C   LIG    1       20.196  39.394 210.889  0.00  0.00    +0.247 C 
ATOM      6  O   LIG    1       21.219  38.822 210.561  0.00  0.00    -0.273 OA
ATOM      7  N   LIG    1       20.180  40.382 211.826  0.00  0.00    -0.215 N 
ATOM      8  C   LIG    1       18.912  40.883 211.966  0.00  0.00    +0.310 C 
ATOM      9  O   LIG    1       18.576  41.760 212.740  0.00  0.00    -0.252 OA
ATOM     10  N   LIG    1       18.078  40.266 211.104  0.00  0.00    -0.285 N 
ATOM     11  H   LIG    1       17.064  40.322 211.246  0.00  0.00    +0.151 HD
ATOM     12  C   LIG    1       18.238  37.819 210.881  0.00  0.00    +0.035 C 
ATOM     13  C   LIG    1       16.784  37.628 210.409  0.00  0.00    +0.003 C 
ATOM     14  C   LIG    1       16.668  37.756 208.884  0.00  0.00    +0.000 C 
ATOM     15  C   LIG    1       17.194  39.115 208.406  0.00  0.00    +0.006 C 
ENDBRANCH   1   7
BRANCH   1  16
ATOM     16  C   LIG    1       22.167  41.753 211.872  0.00  0.00    +0.238 C 
ATOM     17  N   LIG    1       23.441  41.430 211.386  0.00  0.00    -0.267 N 
ATOM     18  O   LIG    1       21.735  42.875 211.671  0.00  0.00    -0.274 OA
BRANCH  17  19
ATOM     19  C   LIG    1       24.209  42.333 210.582  0.00  0.00    +0.010 C 
ATOM     20  C   LIG    1       25.123  43.295 211.329  0.00  0.00    +0.051 C 
ATOM     21  C   LIG    1       25.400  44.499 210.404  0.00  0.00    +0.006 C 
ATOM     22  C   LIG    1       25.965  43.939 209.083  0.00  0.00    +0.004 C 
ATOM     23  C   LIG    1       24.810  43.265 208.311  0.00  0.00    +0.029 C 
ATOM     24  C   LIG    1       24.089  42.304 209.240  0.00  0.00    -0.008 C 
ENDBRANCH  17  19
BRANCH  17  25
ATOM     25  C   LIG    1       24.052  40.111 211.651  0.00  0.00    +0.187 C 
BRANCH  25  26
ATOM     26  C   LIG    1       25.079  40.349 212.742  0.00  0.00    +0.122 A 
ATOM     27  O   LIG    1       24.709  40.858 213.949  0.00  0.00    -0.466 OA
ATOM     28  C   LIG    1       25.828  40.952 214.711  0.00  0.00    +0.195 A 
ATOM     29  C   LIG    1       26.892  40.511 214.004  0.00  0.00    +0.041 A 
ATOM     30  C   LIG    1       26.414  40.126 212.748  0.00  0.00    +0.046 A 
ENDBRANCH  25  26
ENDBRANCH  17  25
ENDBRANCH   1  16
TORSDOF 5
