REMARK VINA RESULT:      -7.8     32.599     33.832
REMARK  Name = ZINC000000607845
REMARK                            x       y       z     vdW  Elec       q    Type
REMARK                         _______ _______ _______ _____ _____    ______ ____
ROOT
ATOM      1  C   LIG    1       23.318  48.821 183.495  0.00  0.00    -0.021 A 
ATOM      2  C   LIG    1       22.492  49.943 183.251  0.00  0.00    +0.003 A 
ATOM      3  C   LIG    1       21.760  50.386 182.135  0.00  0.00    +0.014 A 
ATOM      4  C   LIG    1       21.008  51.550 182.225  0.00  0.00    -0.045 A 
ATOM      5  C   LIG    1       20.989  52.296 183.430  0.00  0.00    +0.006 A 
ATOM      6  C   LIG    1       21.714  51.879 184.533  0.00  0.00    +0.026 A 
ATOM      7  C   LIG    1       22.457  50.697 184.416  0.00  0.00    +0.047 A 
ATOM      8  N   LIG    1       23.254  50.053 185.342  0.00  0.00    -0.360 N 
ATOM      9  H   LIG    1       23.430  50.380 186.306  0.00  0.00    +0.165 HD
ATOM     10  C   LIG    1       23.773  48.911 184.773  0.00  0.00    +0.087 A 
ENDROOT
BRANCH   1  11
ATOM     11  C   LIG    1       23.635  47.708 182.514  0.00  0.00    +0.056 C 
BRANCH  11  14
ATOM     12  C   LIG    1       24.103  45.008 183.349  0.00  0.00    +0.105 C 
ATOM     13  N   LIG    1       25.272  45.792 182.909  0.00  0.00    -0.302 NA
ATOM     14  C   LIG    1       25.102  47.267 182.765  0.00  0.00    +0.061 C 
ATOM     15  C   LIG    1       25.957  47.621 181.527  0.00  0.00    +0.020 C 
ATOM     16  C   LIG    1       26.840  46.388 181.349  0.00  0.00    +0.017 C 
ATOM     17  C   LIG    1       25.866  45.264 181.687  0.00  0.00    +0.084 C 
ENDBRANCH  11  14
ENDBRANCH   1  11
BRANCH   4  18
ATOM     18  C   LIG    1       20.185  52.010 181.040  0.00  0.00    +0.058 C 
BRANCH  18  19
ATOM     19  C   LIG    1       18.737  52.103 181.548  0.00  0.00    +0.176 C 
BRANCH  19  20
ATOM     20  S   LIG    1       17.885  50.554 181.727  0.00  0.00    -0.003 S 
ATOM     21  O   LIG    1       18.431  49.631 180.791  0.00  0.00    -0.169 OA
ATOM     22  O   LIG    1       16.485  50.802 181.650  0.00  0.00    -0.169 OA
BRANCH  20  23
ATOM     23  C   LIG    1       18.305  50.026 183.397  0.00  0.00    +0.088 A 
ATOM     24  C   LIG    1       18.070  50.866 184.488  0.00  0.00    +0.027 A 
ATOM     25  C   LIG    1       18.395  50.460 185.779  0.00  0.00    +0.002 A 
ATOM     26  C   LIG    1       18.966  49.210 185.992  0.00  0.00    +0.000 A 
ATOM     27  C   LIG    1       19.217  48.370 184.913  0.00  0.00    +0.002 A 
ATOM     28  C   LIG    1       18.891  48.777 183.622  0.00  0.00    +0.027 A 
ENDBRANCH  20  23
ENDBRANCH  19  20
ENDBRANCH  18  19
ENDBRANCH   4  18
TORSDOF 6
