REMARK VINA RESULT:      -6.4     25.814     28.608
REMARK  Name = ZINC000000623135
REMARK                            x       y       z     vdW  Elec       q    Type
REMARK                         _______ _______ _______ _____ _____    ______ ____
ROOT
ATOM      1  N   LIG    1       24.097  42.024 210.226  0.00  0.00    -0.299 N 
ATOM      2  H   LIG    1       24.980  42.357 209.826  0.00  0.00    +0.150 HD
ENDROOT
BRANCH   1   5
ATOM      3  C   LIG    1       24.305  39.747 212.215  0.00  0.00    +0.409 C 
ATOM      4  N   LIG    1       24.898  40.973 212.111  0.00  0.00    -0.212 N 
ATOM      5  C   LIG    1       24.109  42.111 211.653  0.00  0.00    +0.235 C 
ATOM      6  S   LIG    1       25.172  43.591 211.944  0.00  0.00    -0.086 S 
ATOM      7  C   LIG    1       26.516  42.575 212.349  0.00  0.00    +0.006 C 
ATOM      8  C   LIG    1       27.948  42.893 212.640  0.00  0.00    +0.044 C 
ATOM      9  C   LIG    1       28.412  41.523 213.244  0.00  0.00    +0.011 C 
ATOM     10  C   LIG    1       27.420  40.416 212.755  0.00  0.00    +0.052 C 
ATOM     11  C   LIG    1       26.251  41.282 212.405  0.00  0.00    +0.029 C 
ATOM     12  O   LIG    1       24.927  38.728 212.498  0.00  0.00    -0.226 OA
BRANCH   3  13
ATOM     13  O   LIG    1       22.969  39.728 212.004  0.00  0.00    -0.450 OA
BRANCH  13  15
ATOM     14  C   LIG    1       21.136  38.307 211.547  0.00  0.00    +0.048 C 
ATOM     15  C   LIG    1       22.101  38.763 212.641  0.00  0.00    +0.230 C 
ENDBRANCH  13  15
ENDBRANCH   3  13
ENDBRANCH   1   5
BRANCH   1  16
ATOM     16  C   LIG    1       23.000  42.515 209.581  0.00  0.00    +0.136 C 
ATOM     17  S   LIG    1       21.418  42.297 210.086  0.00  0.00    -0.018 S 
BRANCH  16  18
ATOM     18  N   LIG    1       23.304  43.252 208.449  0.00  0.00    -0.297 N 
ATOM     19  H   LIG    1       22.929  42.859 207.576  0.00  0.00    +0.154 HD
BRANCH  18  20
ATOM     20  C   LIG    1       23.829  44.561 208.413  0.00  0.00    +0.033 A 
ATOM     21  C   LIG    1       24.721  44.942 207.406  0.00  0.00    +0.027 A 
ATOM     22  C   LIG    1       25.231  46.235 207.398  0.00  0.00    +0.047 A 
ATOM     23  C   LIG    1       24.841  47.138 208.386  0.00  0.00    +0.120 A 
ATOM     24  C   LIG    1       23.940  46.761 209.386  0.00  0.00    +0.047 A 
ATOM     25  C   LIG    1       23.431  45.467 209.398  0.00  0.00    +0.027 A 
BRANCH  23  26
ATOM     26  O   LIG    1       25.384  48.406 208.328  0.00  0.00    -0.495 OA
ATOM     27  C   LIG    1       25.635  49.256 209.470  0.00  0.00    +0.277 C 
ENDBRANCH  23  26
ENDBRANCH  18  20
ENDBRANCH  16  18
ENDBRANCH   1  16
TORSDOF 7
