REMARK VINA RESULT:      -7.5     25.753     27.732
REMARK  Name = ZINC000006087320
REMARK                            x       y       z     vdW  Elec       q    Type
REMARK                         _______ _______ _______ _____ _____    ______ ____
ROOT
ATOM      1  C   LIG    1       21.979  46.008 182.694  0.00  0.00    +0.222 C 
ENDROOT
BRANCH   1   2
ATOM      2  N   LIG    1       21.304  47.178 183.305  0.00  0.00    -0.290 N 
ATOM      3  C   LIG    1       21.395  48.429 182.720  0.00  0.00    +0.262 A 
ATOM      4  O   LIG    1       22.067  48.526 181.689  0.00  0.00    -0.267 OA
ATOM      5  C   LIG    1       20.716  49.534 183.361  0.00  0.00    +0.068 A 
ATOM      6  C   LIG    1       20.732  50.829 182.821  0.00  0.00    +0.035 A 
ATOM      7  C   LIG    1       20.069  51.862 183.473  0.00  0.00    +0.043 A 
ATOM      8 CL   LIG    1       20.093  53.457 182.805  0.00  0.00    -0.083 Cl
ATOM      9  C   LIG    1       19.385  51.621 184.667  0.00  0.00    +0.042 A 
ATOM     10  C   LIG    1       19.366  50.340 185.206  0.00  0.00    +0.068 A 
ATOM     11 CL   LIG    1       18.506  50.078 186.692  0.00  0.00    -0.081 Cl
ATOM     12  C   LIG    1       20.035  49.278 184.558  0.00  0.00    +0.096 A 
ATOM     13  N   LIG    1       20.036  47.974 185.090  0.00  0.00    -0.235 NA
ATOM     14  C   LIG    1       20.634  47.007 184.504  0.00  0.00    +0.203 A 
ENDBRANCH   1   2
BRANCH   1  17
ATOM     15  N   LIG    1       22.982  44.099 183.887  0.00  0.00    -0.284 N 
ATOM     16  H   LIG    1       22.318  43.582 183.285  0.00  0.00    +0.155 HD
ATOM     17  C   LIG    1       22.966  45.462 183.713  0.00  0.00    +0.237 C 
ATOM     18  O   LIG    1       23.712  46.197 184.325  0.00  0.00    -0.274 OA
BRANCH  15  20
ATOM     19  C   LIG    1       25.002  42.847 184.350  0.00  0.00    -0.026 A 
ATOM     20  C   LIG    1       23.745  43.305 184.784  0.00  0.00    +0.037 A 
ATOM     21  C   LIG    1       23.282  43.004 186.069  0.00  0.00    +0.023 A 
ATOM     22  C   LIG    1       24.058  42.223 186.917  0.00  0.00    +0.002 A 
ATOM     23  C   LIG    1       25.296  41.751 186.490  0.00  0.00    +0.000 A 
ATOM     24  C   LIG    1       25.762  42.063 185.216  0.00  0.00    +0.005 A 
BRANCH  19  26
ATOM     25  C   LIG    1       26.660  44.215 183.168  0.00  0.00    +0.009 C 
ATOM     26  C   LIG    1       25.563  43.160 182.968  0.00  0.00    +0.033 C 
ENDBRANCH  19  26
ENDBRANCH  15  20
ENDBRANCH   1  17
TORSDOF 4
