REMARK VINA RESULT:      -6.9     19.825     22.567
REMARK  Name = ZINC000000538627
REMARK                            x       y       z     vdW  Elec       q    Type
REMARK                         _______ _______ _______ _____ _____    ______ ____
ROOT
ATOM      1  C   LIG    1       36.754  19.804 187.874  0.00  0.00    +0.166 C 
ENDROOT
BRANCH   1   2
ATOM      2  C   LIG    1       36.854  20.337 189.321  0.00  0.00    -0.007 A 
ATOM      3  C   LIG    1       35.900  21.178 189.914  0.00  0.00    +0.007 A 
ATOM      4  C   LIG    1       36.064  21.624 191.223  0.00  0.00    +0.000 A 
ATOM      5  C   LIG    1       37.180  21.240 191.958  0.00  0.00    +0.000 A 
ATOM      6  C   LIG    1       38.132  20.409 191.384  0.00  0.00    +0.000 A 
ATOM      7  C   LIG    1       37.970  19.963 190.076  0.00  0.00    +0.007 A 
ENDBRANCH   1   2
BRANCH   1   8
ATOM      8  C   LIG    1       37.193  18.322 187.864  0.00  0.00    -0.007 A 
ATOM      9  C   LIG    1       38.265  17.893 187.074  0.00  0.00    +0.007 A 
ATOM     10  C   LIG    1       38.637  16.552 187.047  0.00  0.00    +0.000 A 
ATOM     11  C   LIG    1       37.945  15.621 187.810  0.00  0.00    +0.000 A 
ATOM     12  C   LIG    1       36.882  16.032 188.605  0.00  0.00    +0.000 A 
ATOM     13  C   LIG    1       36.509  17.372 188.632  0.00  0.00    +0.007 A 
ENDBRANCH   1   8
BRANCH   1  15
ATOM     14  C   LIG    1       38.691  21.446 187.721  0.00  0.00    +0.195 C 
ATOM     15  O   LIG    1       37.714  20.586 187.053  0.00  0.00    -0.363 OA
ENDBRANCH   1  15
BRANCH   1  16
ATOM     16  C   LIG    1       35.323  19.933 187.277  0.00  0.00    +0.325 C 
BRANCH  16  17
ATOM     17  C   LIG    1       35.367  20.920 186.125  0.00  0.00    +0.350 C 
ATOM     18  O   LIG    1       34.805  22.010 186.162  0.00  0.00    -0.247 OA
BRANCH  17  19
ATOM     19  O   LIG    1       35.999  20.584 184.963  0.00  0.00    -0.478 OA
ATOM     20  H   LIG    1       36.576  21.293 184.669  0.00  0.00    +0.295 HD
ENDBRANCH  17  19
ENDBRANCH  16  17
BRANCH  16  21
ATOM     21  O   LIG    1       34.867  18.624 186.752  0.00  0.00    -0.444 OA
BRANCH  21  22
ATOM     22  C   LIG    1       33.677  18.490 186.133  0.00  0.00    +0.319 A 
ATOM     23  N   LIG    1       33.660  18.156 184.845  0.00  0.00    -0.200 NA
ATOM     24  C   LIG    1       32.488  18.010 184.256  0.00  0.00    +0.045 A 
ATOM     25  C   LIG    1       32.464  17.629 182.796  0.00  0.00    +0.066 C 
ATOM     26  C   LIG    1       31.323  18.224 184.978  0.00  0.00    +0.046 A 
ATOM     27  C   LIG    1       31.415  18.580 186.316  0.00  0.00    +0.045 A 
ATOM     28  C   LIG    1       30.189  18.815 187.164  0.00  0.00    +0.066 C 
ATOM     29  N   LIG    1       32.603  18.707 186.881  0.00  0.00    -0.200 NA
ENDBRANCH  21  22
ENDBRANCH  16  21
ENDBRANCH   1  16
TORSDOF 8
