REMARK VINA RESULT:      -7.8      0.000      0.000
REMARK  Name = ZINC000009527204
REMARK                            x       y       z     vdW  Elec       q    Type
REMARK                         _______ _______ _______ _____ _____    ______ ____
ROOT
ATOM      1  O   LIG    1       27.772  43.465 180.078  0.00  0.00    -0.267 OA
ATOM      2  C   LIG    1       27.443  44.511 180.637  0.00  0.00    +0.282 C 
ATOM      3  N   LIG    1       26.167  44.543 181.189  0.00  0.00    -0.292 N 
ATOM      4  C   LIG    1       25.868  45.252 182.460  0.00  0.00    +0.127 C 
ATOM      5  C   LIG    1       25.917  44.188 183.588  0.00  0.00    +0.127 C 
ATOM      6  N   LIG    1       24.921  43.141 183.244  0.00  0.00    -0.294 N 
ATOM      7  C   LIG    1       23.602  43.253 183.671  0.00  0.00    +0.253 C 
ATOM      8  O   LIG    1       22.727  42.930 182.869  0.00  0.00    -0.269 OA
ATOM      9  C   LIG    1       25.230  42.434 181.970  0.00  0.00    +0.127 C 
ATOM     10  C   LIG    1       25.170  43.493 180.844  0.00  0.00    +0.127 C 
ENDROOT
BRANCH   7  11
ATOM     11  C   LIG    1       23.304  43.756 185.002  0.00  0.00    +0.075 A 
ATOM     12  S   LIG    1       23.771  42.867 186.419  0.00  0.00    -0.083 S 
ATOM     13  C   LIG    1       23.087  44.070 187.452  0.00  0.00    +0.024 A 
ATOM     14  C   LIG    1       23.035  44.035 188.893  0.00  0.00    -0.001 A 
ATOM     15  C   LIG    1       22.216  44.934 189.522  0.00  0.00    -0.002 A 
ATOM     16  C   LIG    1       21.302  45.902 188.785  0.00  0.00    +0.048 C 
ATOM     17  C   LIG    1       21.975  46.329 187.448  0.00  0.00    +0.041 C 
ATOM     18  S   LIG    1       22.274  44.769 191.240  0.00  0.00    -0.101 S 
ATOM     19  C   LIG    1       23.412  43.474 191.102  0.00  0.00    +0.046 A 
ATOM     20  C   LIG    1       23.717  43.199 189.801  0.00  0.00    +0.017 A 
ATOM     21  C   LIG    1       22.551  45.110 186.731  0.00  0.00    -0.032 A 
ATOM     22  C   LIG    1       22.674  44.934 185.351  0.00  0.00    +0.025 A 
ENDBRANCH   7  11
BRANCH   2  23
ATOM     23  C   LIG    1       28.359  45.650 180.725  0.00  0.00    +0.189 A 
ATOM     24  O   LIG    1       28.594  46.525 179.683  0.00  0.00    -0.458 OA
ATOM     25  C   LIG    1       29.506  47.429 180.100  0.00  0.00    +0.196 A 
ATOM     26  C   LIG    1       29.864  47.157 181.377  0.00  0.00    +0.042 A 
ATOM     27  C   LIG    1       29.143  46.031 181.774  0.00  0.00    +0.054 A 
ENDBRANCH   2  23
TORSDOF 2
