REMARK VINA RESULT:      -7.5      5.198      8.624
REMARK  Name = ZINC000006084415
REMARK                            x       y       z     vdW  Elec       q    Type
REMARK                         _______ _______ _______ _____ _____    ______ ____
ROOT
ATOM      1  O   LIG    1       23.334  45.941 184.593  0.00  0.00    -0.451 OA
ENDROOT
BRANCH   1   2
ATOM      2  C   LIG    1       22.457  46.496 185.466  0.00  0.00    +0.356 C 
ATOM      3  O   LIG    1       22.145  45.840 186.450  0.00  0.00    -0.243 OA
BRANCH   2   7
ATOM      4  C   LIG    1       20.898  49.728 184.567  0.00  0.00    +0.041 A 
ATOM      5  C   LIG    1       20.756  48.335 184.765  0.00  0.00    -0.008 A 
ATOM      6  C   LIG    1       19.480  47.533 184.586  0.00  0.00    +0.047 C 
ATOM      7  C   LIG    1       21.975  47.826 185.145  0.00  0.00    +0.128 A 
ATOM      8  N   LIG    1       22.846  48.884 185.181  0.00  0.00    -0.352 N 
ATOM      9  H   LIG    1       23.851  48.798 185.427  0.00  0.00    +0.166 HD
ATOM     10  C   LIG    1       22.225  50.033 184.840  0.00  0.00    +0.024 A 
ATOM     11  C   LIG    1       23.029  51.319 184.816  0.00  0.00    +0.064 C 
BRANCH   4  13
ATOM     12  C   LIG    1       18.949  51.363 185.138  0.00  0.00    +0.091 C 
ATOM     13  C   LIG    1       19.836  50.648 184.150  0.00  0.00    +0.162 C 
ATOM     14  O   LIG    1       19.610  50.889 182.982  0.00  0.00    -0.292 OA
ENDBRANCH   4  13
ENDBRANCH   2   7
ENDBRANCH   1   2
BRANCH   1  15
ATOM     15  C   LIG    1       23.003  44.689 183.891  0.00  0.00    +0.328 C 
BRANCH  15  16
ATOM     16  C   LIG    1       23.797  43.563 184.553  0.00  0.00    +0.256 C 
ATOM     17  N   LIG    1       25.078  43.244 184.228  0.00  0.00    -0.266 N 
ATOM     18  H   LIG    1       25.502  42.566 184.872  0.00  0.00    +0.156 HD
ATOM     19  O   LIG    1       23.317  42.854 185.416  0.00  0.00    -0.272 OA
BRANCH  17  20
ATOM     20  C   LIG    1       25.877  43.732 183.180  0.00  0.00    +0.144 A 
ATOM     21  C   LIG    1       25.842  43.092 181.924  0.00  0.00    +0.082 A 
ATOM     22 CL   LIG    1       24.843  41.701 181.648  0.00  0.00    -0.080 Cl
ATOM     23  C   LIG    1       26.620  43.595 180.894  0.00  0.00    +0.045 A 
ATOM     24  C   LIG    1       27.397  44.722 181.151  0.00  0.00    +0.063 A 
ATOM     25 CL   LIG    1       28.379  45.367 179.877  0.00  0.00    -0.082 Cl
ATOM     26  C   LIG    1       27.372  45.314 182.426  0.00  0.00    +0.059 A 
ATOM     27  C   LIG    1       28.197  46.543 182.743  0.00  0.00    +0.067 C 
ATOM     28  N   LIG    1       26.617  44.817 183.413  0.00  0.00    -0.234 NA
ENDBRANCH  17  20
ENDBRANCH  15  16
ENDBRANCH   1  15
TORSDOF 6
