REMARK VINA RESULT:      -8.7      1.859      2.455
REMARK  Name = ZINC000006083105
REMARK                            x       y       z     vdW  Elec       q    Type
REMARK                         _______ _______ _______ _____ _____    ______ ____
ROOT
ATOM      1  C   LIG    1       26.035  42.381 184.973  0.00  0.00    +0.083 C 
ENDROOT
BRANCH   1   2
ATOM      2  C   LIG    1       24.990  42.825 183.968  0.00  0.00    +0.111 A 
ATOM      3  N   LIG    1       24.328  43.999 184.262  0.00  0.00    -0.310 N 
ATOM      4  H   LIG    1       24.509  44.488 185.149  0.00  0.00    +0.170 HD
ATOM      5  C   LIG    1       23.346  44.512 183.472  0.00  0.00    +0.260 A 
ATOM      6  O   LIG    1       22.835  45.556 183.877  0.00  0.00    -0.267 OA
ATOM      7  C   LIG    1       23.024  43.775 182.285  0.00  0.00    +0.075 A 
ATOM      8  C   LIG    1       22.070  44.041 181.270  0.00  0.00    -0.023 A 
ATOM      9  C   LIG    1       21.135  45.238 181.258  0.00  0.00    +0.037 C 
ATOM     10  C   LIG    1       20.557  45.380 179.837  0.00  0.00    +0.005 C 
ATOM     11  C   LIG    1       20.029  44.035 179.304  0.00  0.00    +0.005 C 
ATOM     12  C   LIG    1       21.177  43.036 179.073  0.00  0.00    +0.043 C 
ATOM     13  C   LIG    1       22.054  43.072 180.306  0.00  0.00    -0.004 A 
ATOM     14  S   LIG    1       23.220  41.825 180.612  0.00  0.00    -0.073 S 
ATOM     15  C   LIG    1       23.722  42.614 182.061  0.00  0.00    +0.116 A 
ATOM     16  N   LIG    1       24.711  42.141 182.921  0.00  0.00    -0.227 NA
ENDBRANCH   1   2
BRANCH   1  17
ATOM     17  C   LIG    1       25.351  41.407 185.969  0.00  0.00    +0.104 C 
BRANCH  17  20
ATOM     18  N   LIG    1       23.829  42.464 187.583  0.00  0.00    -0.285 N 
ATOM     19  H   LIG    1       23.106  42.101 186.953  0.00  0.00    +0.155 HD
ATOM     20  C   LIG    1       25.122  42.146 187.272  0.00  0.00    +0.218 C 
ATOM     21  O   LIG    1       26.041  42.471 187.997  0.00  0.00    -0.275 OA
BRANCH  18  25
ATOM     22  C   LIG    1       22.548  44.622 190.932  0.00  0.00    +0.121 A 
ATOM     23  C   LIG    1       23.599  43.707 191.045  0.00  0.00    +0.047 A 
ATOM     24  C   LIG    1       24.018  43.004 189.919  0.00  0.00    +0.027 A 
ATOM     25  C   LIG    1       23.385  43.224 188.693  0.00  0.00    +0.034 A 
ATOM     26  C   LIG    1       22.329  44.135 188.584  0.00  0.00    +0.027 A 
ATOM     27  C   LIG    1       21.913  44.836 189.711  0.00  0.00    +0.047 A 
BRANCH  22  28
ATOM     28  O   LIG    1       22.094  45.349 192.013  0.00  0.00    -0.492 OA
BRANCH  28  30
ATOM     29  C   LIG    1       20.593  47.161 191.986  0.00  0.00    +0.048 C 
ATOM     30  C   LIG    1       20.711  45.665 192.270  0.00  0.00    +0.225 C 
ENDBRANCH  28  30
ENDBRANCH  22  28
ENDBRANCH  18  25
ENDBRANCH  17  20
ENDBRANCH   1  17
TORSDOF 6
