REMARK VINA RESULT:      -8.3     25.715     28.259
REMARK  Name = ZINC000006086011
REMARK                            x       y       z     vdW  Elec       q    Type
REMARK                         _______ _______ _______ _____ _____    ______ ____
ROOT
ATOM      1  N   LIG    1       24.574  42.244 185.203  0.00  0.00    -0.286 NA
ATOM      2  C   LIG    1       25.352  41.667 186.321  0.00  0.00    +0.106 C 
ENDROOT
BRANCH   1   3
ATOM      3  C   LIG    1       25.419  42.530 183.977  0.00  0.00    +0.140 C 
ATOM      4  C   LIG    1       26.699  43.307 184.367  0.00  0.00    +0.034 C 
BRANCH   3   7
ATOM      5  N   LIG    1       23.791  42.546 182.153  0.00  0.00    -0.281 N 
ATOM      6  H   LIG    1       23.843  41.540 182.384  0.00  0.00    +0.155 HD
ATOM      7  C   LIG    1       24.580  43.328 182.956  0.00  0.00    +0.234 C 
ATOM      8  O   LIG    1       24.564  44.542 182.872  0.00  0.00    -0.274 OA
BRANCH   5  10
ATOM      9  C   LIG    1       23.017  42.224 179.908  0.00  0.00    +0.141 A 
ATOM     10  C   LIG    1       22.858  42.881 181.137  0.00  0.00    +0.076 A 
ATOM     11  C   LIG    1       21.833  43.814 181.303  0.00  0.00    +0.027 A 
ATOM     12  C   LIG    1       20.966  44.076 180.245  0.00  0.00    +0.002 A 
ATOM     13  C   LIG    1       21.120  43.417 179.025  0.00  0.00    +0.004 A 
ATOM     14  C   LIG    1       22.146  42.491 178.852  0.00  0.00    +0.047 A 
BRANCH   9  16
ATOM     15  C   LIG    1       25.185  41.432 178.894  0.00  0.00    +0.277 C 
ATOM     16  O   LIG    1       24.052  41.299 179.788  0.00  0.00    -0.493 OA
ENDBRANCH   9  16
ENDBRANCH   5  10
ENDBRANCH   3   7
ENDBRANCH   1   3
BRANCH   1  17
ATOM     17  C   LIG    1       23.738  43.421 185.657  0.00  0.00    +0.181 C 
BRANCH  17  18
ATOM     18  C   LIG    1       23.229  43.182 187.075  0.00  0.00    +0.231 C 
ATOM     19  N   LIG    1       23.532  44.143 188.009  0.00  0.00    -0.284 N 
ATOM     20  H   LIG    1       24.051  44.961 187.657  0.00  0.00    +0.155 HD
ATOM     21  O   LIG    1       22.610  42.182 187.384  0.00  0.00    -0.274 OA
BRANCH  19  22
ATOM     22  C   LIG    1       23.260  44.116 189.396  0.00  0.00    +0.041 A 
ATOM     23  C   LIG    1       22.138  44.860 189.880  0.00  0.00    +0.003 A 
ATOM     24  C   LIG    1       21.335  45.692 189.052  0.00  0.00    +0.010 A 
ATOM     25  C   LIG    1       20.246  46.357 189.563  0.00  0.00    +0.001 A 
ATOM     26  C   LIG    1       19.914  46.234 190.926  0.00  0.00    +0.001 A 
ATOM     27  C   LIG    1       20.683  45.454 191.756  0.00  0.00    +0.008 A 
ATOM     28  C   LIG    1       21.813  44.758 191.257  0.00  0.00    -0.016 A 
ATOM     29  C   LIG    1       22.622  43.964 192.110  0.00  0.00    +0.008 A 
ATOM     30  C   LIG    1       23.708  43.278 191.615  0.00  0.00    +0.002 A 
ATOM     31  C   LIG    1       24.031  43.347 190.248  0.00  0.00    +0.024 A 
ENDBRANCH  19  22
ENDBRANCH  17  18
ENDBRANCH   1  17
TORSDOF 7
