REMARK VINA RESULT:      -7.6     28.166     31.149
REMARK  Name = ZINC000009527204
REMARK                            x       y       z     vdW  Elec       q    Type
REMARK                         _______ _______ _______ _____ _____    ______ ____
ROOT
ATOM      1  O   LIG    1       26.660  18.564 199.363  0.00  0.00    -0.267 OA
ATOM      2  C   LIG    1       27.716  19.190 199.453  0.00  0.00    +0.282 C 
ATOM      3  N   LIG    1       28.887  18.445 199.357  0.00  0.00    -0.292 N 
ATOM      4  C   LIG    1       30.104  18.963 198.682  0.00  0.00    +0.127 C 
ATOM      5  C   LIG    1       30.084  18.408 197.235  0.00  0.00    +0.127 C 
ATOM      6  N   LIG    1       30.045  16.926 197.335  0.00  0.00    -0.294 N 
ATOM      7  C   LIG    1       31.223  16.191 197.394  0.00  0.00    +0.253 C 
ATOM      8  O   LIG    1       31.249  15.241 198.174  0.00  0.00    -0.269 OA
ATOM      9  C   LIG    1       28.818  16.417 198.010  0.00  0.00    +0.127 C 
ATOM     10  C   LIG    1       28.846  16.961 199.458  0.00  0.00    +0.127 C 
ENDROOT
BRANCH   7  11
ATOM     11  C   LIG    1       32.363  16.569 196.575  0.00  0.00    +0.075 A 
ATOM     12  S   LIG    1       32.720  15.731 195.097  0.00  0.00    -0.083 S 
ATOM     13  C   LIG    1       34.099  16.733 194.811  0.00  0.00    +0.024 A 
ATOM     14  C   LIG    1       35.022  16.628 193.708  0.00  0.00    -0.001 A 
ATOM     15  C   LIG    1       36.199  17.321 193.795  0.00  0.00    -0.002 A 
ATOM     16  C   LIG    1       36.619  18.121 195.019  0.00  0.00    +0.048 C 
ATOM     17  C   LIG    1       35.354  18.727 195.697  0.00  0.00    +0.041 C 
ATOM     18  S   LIG    1       37.185  17.099 192.394  0.00  0.00    -0.101 S 
ATOM     19  C   LIG    1       35.995  16.060 191.691  0.00  0.00    +0.046 A 
ATOM     20  C   LIG    1       34.909  15.904 192.502  0.00  0.00    +0.017 A 
ATOM     21  C   LIG    1       34.252  17.675 195.798  0.00  0.00    -0.032 A 
ATOM     22  C   LIG    1       33.273  17.585 196.792  0.00  0.00    +0.025 A 
ENDBRANCH   7  11
BRANCH   2  23
ATOM     23  C   LIG    1       27.728  20.643 199.633  0.00  0.00    +0.189 A 
ATOM     24  O   LIG    1       28.333  21.276 200.700  0.00  0.00    -0.458 OA
ATOM     25  C   LIG    1       28.128  22.604 200.563  0.00  0.00    +0.196 A 
ATOM     26  C   LIG    1       27.408  22.839 199.442  0.00  0.00    +0.042 A 
ATOM     27  C   LIG    1       27.150  21.601 198.853  0.00  0.00    +0.054 A 
ENDBRANCH   2  23
TORSDOF 2
