REMARK VINA RESULT:      -7.6     27.310     29.217
REMARK  Name = ZINC000006087320
REMARK                            x       y       z     vdW  Elec       q    Type
REMARK                         _______ _______ _______ _____ _____    ______ ____
ROOT
ATOM      1  C   LIG    1       22.945  45.378 182.384  0.00  0.00    +0.222 C 
ENDROOT
BRANCH   1   2
ATOM      2  N   LIG    1       24.135  45.517 181.509  0.00  0.00    -0.290 N 
ATOM      3  C   LIG    1       25.291  46.112 181.981  0.00  0.00    +0.262 A 
ATOM      4  O   LIG    1       25.282  46.530 183.143  0.00  0.00    -0.267 OA
ATOM      5  C   LIG    1       26.420  46.219 181.083  0.00  0.00    +0.068 A 
ATOM      6  C   LIG    1       27.640  46.783 181.488  0.00  0.00    +0.035 A 
ATOM      7  C   LIG    1       28.697  46.870 180.590  0.00  0.00    +0.043 A 
ATOM      8 CL   LIG    1       30.198  47.567 181.092  0.00  0.00    -0.083 Cl
ATOM      9  C   LIG    1       28.555  46.399 179.282  0.00  0.00    +0.042 A 
ATOM     10  C   LIG    1       27.349  45.841 178.876  0.00  0.00    +0.068 A 
ATOM     11 CL   LIG    1       27.208  45.267 177.243  0.00  0.00    -0.081 Cl
ATOM     12  C   LIG    1       26.263  45.745 179.774  0.00  0.00    +0.096 A 
ATOM     13  N   LIG    1       25.029  45.190 179.383  0.00  0.00    -0.235 NA
ATOM     14  C   LIG    1       24.045  45.094 180.194  0.00  0.00    +0.203 A 
ENDBRANCH   1   2
BRANCH   1  17
ATOM     15  N   LIG    1       23.964  44.084 184.217  0.00  0.00    -0.284 N 
ATOM     16  H   LIG    1       24.426  44.995 184.386  0.00  0.00    +0.155 HD
ATOM     17  C   LIG    1       23.091  44.077 183.156  0.00  0.00    +0.237 C 
ATOM     18  O   LIG    1       22.451  43.092 182.856  0.00  0.00    -0.274 OA
BRANCH  15  20
ATOM     19  C   LIG    1       25.512  42.308 184.772  0.00  0.00    -0.026 A 
ATOM     20  C   LIG    1       24.347  43.030 185.087  0.00  0.00    +0.037 A 
ATOM     21  C   LIG    1       23.611  42.728 186.238  0.00  0.00    +0.023 A 
ATOM     22  C   LIG    1       24.020  41.688 187.065  0.00  0.00    +0.002 A 
ATOM     23  C   LIG    1       25.162  40.957 186.752  0.00  0.00    +0.000 A 
ATOM     24  C   LIG    1       25.901  41.268 185.614  0.00  0.00    +0.005 A 
BRANCH  19  26
ATOM     25  C   LIG    1       25.950  41.590 182.467  0.00  0.00    +0.009 C 
ATOM     26  C   LIG    1       26.361  42.607 183.542  0.00  0.00    +0.033 C 
ENDBRANCH  19  26
ENDBRANCH  15  20
ENDBRANCH   1  17
TORSDOF 4
