REMARK VINA RESULT:      -7.2     23.327     25.931
REMARK  Name = ZINC000000538144
REMARK                            x       y       z     vdW  Elec       q    Type
REMARK                         _______ _______ _______ _____ _____    ______ ____
ROOT
ATOM      1  C   LIG    1       16.182  34.816 209.405  0.00  0.00    +0.163 A 
ATOM      2  C   LIG    1       16.753  35.693 208.429  0.00  0.00    +0.162 A 
ATOM      3  C   LIG    1       17.276  36.920 208.803  0.00  0.00    +0.059 A 
ATOM      4  C   LIG    1       17.251  37.298 210.157  0.00  0.00    +0.007 A 
ATOM      5  C   LIG    1       17.703  38.442 210.859  0.00  0.00    -0.018 A 
ATOM      6  C   LIG    1       17.425  38.267 212.179  0.00  0.00    +0.017 A 
ATOM      7  C   LIG    1       17.684  39.171 213.365  0.00  0.00    +0.063 C 
ATOM      8  N   LIG    1       16.796  37.045 212.322  0.00  0.00    -0.358 N 
ATOM      9  H   LIG    1       16.459  36.646 213.211  0.00  0.00    +0.166 HD
ATOM     10  C   LIG    1       16.689  36.433 211.088  0.00  0.00    +0.051 A 
ATOM     11  C   LIG    1       16.145  35.187 210.744  0.00  0.00    +0.075 A 
ENDROOT
BRANCH   1  13
ATOM     12  C   LIG    1       14.346  33.358 208.451  0.00  0.00    +0.277 C 
ATOM     13  O   LIG    1       15.656  33.584 209.019  0.00  0.00    -0.491 OA
ENDBRANCH   1  13
BRANCH   2  14
ATOM     14  O   LIG    1       16.840  35.409 207.064  0.00  0.00    -0.491 OA
ATOM     15  C   LIG    1       17.712  34.465 206.406  0.00  0.00    +0.277 C 
ENDBRANCH   2  14
BRANCH   5  16
ATOM     16  C   LIG    1       18.393  39.632 210.224  0.00  0.00    +0.053 C 
BRANCH  16  17
ATOM     17  C   LIG    1       19.859  39.203 210.046  0.00  0.00    +0.089 C 
BRANCH  17  18
ATOM     18  N   LIG    1       20.622  39.756 211.198  0.00  0.00    -0.299 NA
ATOM     19  C   LIG    1       20.328  41.198 211.498  0.00  0.00    +0.103 C 
ATOM     20  C   LIG    1       20.868  42.132 210.378  0.00  0.00    +0.120 C 
ATOM     21  N   LIG    1       22.327  41.894 210.236  0.00  0.00    -0.327 N 
ATOM     22  C   LIG    1       22.617  40.486 209.875  0.00  0.00    +0.120 C 
ATOM     23  C   LIG    1       22.097  39.584 211.027  0.00  0.00    +0.103 C 
BRANCH  21  24
ATOM     24  C   LIG    1       22.999  42.916 209.530  0.00  0.00    +0.030 A 
ATOM     25  C   LIG    1       24.158  42.667 208.781  0.00  0.00    +0.023 A 
ATOM     26  C   LIG    1       24.777  43.707 208.097  0.00  0.00    +0.002 A 
ATOM     27  C   LIG    1       24.251  44.996 208.154  0.00  0.00    +0.000 A 
ATOM     28  C   LIG    1       23.103  45.246 208.901  0.00  0.00    +0.002 A 
ATOM     29  C   LIG    1       22.479  44.212 209.591  0.00  0.00    +0.023 A 
ENDBRANCH  21  24
ENDBRANCH  17  18
ENDBRANCH  16  17
ENDBRANCH   5  16
TORSDOF 6
