REMARK VINA RESULT:      -8.0      0.000      0.000
REMARK  Name = ZINC000000622956
REMARK                            x       y       z     vdW  Elec       q    Type
REMARK                         _______ _______ _______ _____ _____    ______ ____
ROOT
ATOM      1  C   LIG    1       26.483  43.493 182.341  0.00  0.00    +0.271 C 
ATOM      2  N   LIG    1       25.483  43.798 181.346  0.00  0.00    -0.157 N 
ATOM      3  C   LIG    1       25.511  45.061 180.983  0.00  0.00    +0.250 C 
ATOM      4  C   LIG    1       24.612  45.690 179.928  0.00  0.00    +0.124 C 
ATOM      5  C   LIG    1       25.490  46.008 178.696  0.00  0.00    +0.012 C 
ATOM      6  C   LIG    1       26.290  47.300 178.945  0.00  0.00    +0.004 C 
ATOM      7  C   LIG    1       27.395  47.217 180.020  0.00  0.00    +0.045 C 
ATOM      8  C   LIG    1       26.766  47.128 181.423  0.00  0.00    +0.236 C 
ATOM      9  N   LIG    1       26.437  45.713 181.638  0.00  0.00    -0.258 N 
ATOM     10  C   LIG    1       27.205  44.845 182.555  0.00  0.00    +0.323 C 
ENDROOT
BRANCH   1  11
ATOM     11  C   LIG    1       25.849  42.987 183.642  0.00  0.00    +0.034 A 
ATOM     12  C   LIG    1       24.750  43.646 184.224  0.00  0.00    +0.060 A 
ATOM     13  C   LIG    1       24.213  43.136 185.396  0.00  0.00    +0.167 A 
ATOM     14  O   LIG    1       23.168  43.631 186.092  0.00  0.00    -0.453 OA
ATOM     15  C   LIG    1       22.981  42.723 187.252  0.00  0.00    +0.466 C 
ATOM     16  O   LIG    1       24.045  41.698 187.116  0.00  0.00    -0.453 OA
ATOM     17  C   LIG    1       24.722  42.011 185.991  0.00  0.00    +0.166 A 
ATOM     18  C   LIG    1       25.798  41.333 185.443  0.00  0.00    +0.050 A 
ATOM     19  C   LIG    1       26.358  41.826 184.263  0.00  0.00    +0.014 A 
ENDBRANCH   1  11
BRANCH   2  20
ATOM     20  C   LIG    1       24.637  42.821 180.768  0.00  0.00    +0.124 A 
ATOM     21  C   LIG    1       25.134  42.046 179.721  0.00  0.00    +0.050 A 
ATOM     22  C   LIG    1       24.312  41.084 179.142  0.00  0.00    +0.024 A 
ATOM     23  C   LIG    1       23.007  40.908 179.612  0.00  0.00    +0.041 A 
ATOM     24 CL   LIG    1       21.987  39.712 178.889  0.00  0.00    -0.084 Cl
ATOM     25  C   LIG    1       22.519  41.694 180.661  0.00  0.00    +0.024 A 
ATOM     26  C   LIG    1       23.337  42.658 181.245  0.00  0.00    +0.050 A 
ENDBRANCH   2  20
BRANCH   1  27
ATOM     27  O   LIG    1       27.357  42.535 181.757  0.00  0.00    -0.347 OA
ATOM     28  H   LIG    1       27.831  42.970 181.032  0.00  0.00    +0.215 HD
ENDBRANCH   1  27
TORSDOF 3
