REMARK VINA RESULT:      -8.2     29.624     31.956
REMARK  Name = ZINC000006086011
REMARK                            x       y       z     vdW  Elec       q    Type
REMARK                         _______ _______ _______ _____ _____    ______ ____
ROOT
ATOM      1  N   LIG    1       21.982  45.692 184.483  0.00  0.00    -0.286 NA
ATOM      2  C   LIG    1       22.820  44.474 184.473  0.00  0.00    +0.106 C 
ENDROOT
BRANCH   1   3
ATOM      3  C   LIG    1       21.738  46.256 183.096  0.00  0.00    +0.140 C 
ATOM      4  C   LIG    1       23.076  46.656 182.429  0.00  0.00    +0.034 C 
BRANCH   3   7
ATOM      5  N   LIG    1       21.303  48.622 182.666  0.00  0.00    -0.281 N 
ATOM      6  H   LIG    1       22.232  48.494 182.232  0.00  0.00    +0.155 HD
ATOM      7  C   LIG    1       20.790  47.469 183.200  0.00  0.00    +0.234 C 
ATOM      8  O   LIG    1       19.667  47.431 183.668  0.00  0.00    -0.274 OA
BRANCH   5  10
ATOM      9  C   LIG    1       21.248  50.907 183.388  0.00  0.00    +0.141 A 
ATOM     10  C   LIG    1       20.749  49.921 182.524  0.00  0.00    +0.076 A 
ATOM     11  C   LIG    1       19.754  50.243 181.599  0.00  0.00    +0.027 A 
ATOM     12  C   LIG    1       19.272  51.548 181.535  0.00  0.00    +0.002 A 
ATOM     13  C   LIG    1       19.774  52.529 182.390  0.00  0.00    +0.004 A 
ATOM     14  C   LIG    1       20.762  52.212 183.320  0.00  0.00    +0.047 A 
BRANCH   9  16
ATOM     15  C   LIG    1       23.066  51.471 185.042  0.00  0.00    +0.277 C 
ATOM     16  O   LIG    1       22.242  50.542 184.293  0.00  0.00    -0.493 OA
ENDBRANCH   9  16
ENDBRANCH   5  10
ENDBRANCH   3   7
ENDBRANCH   1   3
BRANCH   1  17
ATOM     17  C   LIG    1       22.496  46.713 185.475  0.00  0.00    +0.181 C 
BRANCH  17  18
ATOM     18  C   LIG    1       21.642  46.684 186.740  0.00  0.00    +0.231 C 
ATOM     19  N   LIG    1       22.157  46.001 187.815  0.00  0.00    -0.284 N 
ATOM     20  H   LIG    1       23.095  45.595 187.681  0.00  0.00    +0.155 HD
ATOM     21  O   LIG    1       20.548  47.210 186.797  0.00  0.00    -0.274 OA
BRANCH  19  22
ATOM     22  C   LIG    1       21.532  45.750 189.059  0.00  0.00    +0.041 A 
ATOM     23  C   LIG    1       22.191  44.881 189.983  0.00  0.00    +0.003 A 
ATOM     24  C   LIG    1       23.398  44.190 189.685  0.00  0.00    +0.010 A 
ATOM     25  C   LIG    1       24.008  43.395 190.625  0.00  0.00    +0.001 A 
ATOM     26  C   LIG    1       23.436  43.240 191.903  0.00  0.00    +0.001 A 
ATOM     27  C   LIG    1       22.259  43.878 192.215  0.00  0.00    +0.008 A 
ATOM     28  C   LIG    1       21.607  44.703 191.264  0.00  0.00    -0.016 A 
ATOM     29  C   LIG    1       20.383  45.352 191.572  0.00  0.00    +0.008 A 
ATOM     30  C   LIG    1       19.764  46.164 190.650  0.00  0.00    +0.002 A 
ATOM     31  C   LIG    1       20.341  46.373 189.384  0.00  0.00    +0.024 A 
ENDBRANCH  19  22
ENDBRANCH  17  18
ENDBRANCH   1  17
TORSDOF 7
