REMARK VINA RESULT:      -8.1      5.843      8.875
REMARK  Name = ZINC000049483826
REMARK                            x       y       z     vdW  Elec       q    Type
REMARK                         _______ _______ _______ _____ _____    ______ ____
ROOT
ATOM      1  N   LIG    1       35.203  19.649 185.939  0.00  0.00    -0.175 NA
ATOM      2  C   LIG    1       33.883  20.268 185.784  0.00  0.00    +0.123 C 
ATOM      3  C   LIG    1       33.295  18.880 186.145  0.00  0.00    +0.109 C 
ATOM      4  C   LIG    1       34.686  18.283 185.809  0.00  0.00    +0.123 C 
ENDROOT
BRANCH   3   5
ATOM      5  C   LIG    1       32.220  18.433 185.185  0.00  0.00    +0.233 A 
ATOM      6  O   LIG    1       32.515  18.284 183.911  0.00  0.00    -0.337 OA
ATOM      7  N   LIG    1       31.427  17.893 183.284  0.00  0.00    -0.056 NA
ATOM      8  C   LIG    1       30.516  17.817 184.194  0.00  0.00    +0.209 A 
ATOM      9  N   LIG    1       31.002  18.158 185.415  0.00  0.00    -0.191 NA
BRANCH   8  10
ATOM     10  C   LIG    1       29.138  17.415 183.941  0.00  0.00    +0.060 A 
ATOM     11  S   LIG    1       28.086  16.889 185.221  0.00  0.00    -0.093 S 
ATOM     12  C   LIG    1       26.786  16.640 184.113  0.00  0.00    +0.046 A 
ATOM     13  C   LIG    1       27.148  16.947 182.832  0.00  0.00    +0.008 A 
ATOM     14  C   LIG    1       28.476  17.385 182.734  0.00  0.00    +0.019 A 
ENDBRANCH   8  10
ENDBRANCH   3   5
BRANCH   1  15
ATOM     15  S   LIG    1       36.249  20.098 187.124  0.00  0.00    +0.061 S 
ATOM     16  O   LIG    1       36.924  21.281 186.720  0.00  0.00    -0.153 OA
ATOM     17  O   LIG    1       35.517  20.176 188.343  0.00  0.00    -0.153 OA
BRANCH  15  20
ATOM     18  C   LIG    1       36.132  17.610 189.140  0.00  0.00    +0.046 C 
ATOM     19  C   LIG    1       37.298  17.676 188.167  0.00  0.00    -0.024 A 
ATOM     20  C   LIG    1       37.436  18.729 187.241  0.00  0.00    +0.110 A 
ATOM     21  C   LIG    1       38.530  18.723 186.370  0.00  0.00    +0.048 A 
ATOM     22  C   LIG    1       39.473  17.699 186.417  0.00  0.00    +0.043 A 
ATOM     23 CL   LIG    1       40.823  17.719 185.334  0.00  0.00    -0.083 Cl
ATOM     24  C   LIG    1       39.333  16.662 187.333  0.00  0.00    +0.020 A 
ATOM     25  C   LIG    1       38.249  16.653 188.201  0.00  0.00    +0.007 A 
ENDBRANCH  15  20
ENDBRANCH   1  15
TORSDOF 4
