REMARK VINA RESULT:      -7.3      0.000      0.000
REMARK  Name = ZINC000070728784
REMARK                            x       y       z     vdW  Elec       q    Type
REMARK                         _______ _______ _______ _____ _____    ______ ____
ROOT
ATOM      1  C   LIG    1       20.605  47.647 185.017  0.00  0.00    +0.251 C 
ATOM      2  N   LIG    1       21.968  47.835 184.958  0.00  0.00    -0.261 N 
ATOM      3  H   LIG    1       22.362  48.446 185.683  0.00  0.00    +0.157 HD
ATOM      4  O   LIG    1       20.090  46.776 184.329  0.00  0.00    -0.270 OA
ENDROOT
BRANCH   1   6
ATOM      5  C   LIG    1       19.252  49.741 185.462  0.00  0.00    +0.020 A 
ATOM      6  C   LIG    1       19.822  48.514 185.891  0.00  0.00    +0.050 A 
ATOM      7  C   LIG    1       19.607  48.104 187.215  0.00  0.00    +0.014 A 
ATOM      8  C   LIG    1       18.809  48.842 188.078  0.00  0.00    +0.001 A 
ATOM      9  C   LIG    1       18.210  50.017 187.631  0.00  0.00    +0.001 A 
ATOM     10  C   LIG    1       18.427  50.462 186.336  0.00  0.00    +0.015 A 
BRANCH   5  11
ATOM     11  S   LIG    1       19.535  50.443 183.887  0.00  0.00    -0.122 S 
BRANCH  11  13
ATOM     12  C   LIG    1       21.813  51.714 184.540  0.00  0.00    +0.019 C 
ATOM     13  C   LIG    1       20.343  52.035 184.274  0.00  0.00    +0.045 C 
ATOM     14  C   LIG    1       20.173  52.914 183.034  0.00  0.00    +0.019 C 
ENDBRANCH  11  13
ENDBRANCH   5  11
ENDBRANCH   1   6
BRANCH   2  15
ATOM     15  C   LIG    1       22.886  47.244 184.081  0.00  0.00    +0.165 A 
ATOM     16  S   LIG    1       23.499  48.236 182.812  0.00  0.00    -0.060 S 
ATOM     17  C   LIG    1       24.403  46.879 182.286  0.00  0.00    +0.073 A 
ATOM     18  C   LIG    1       24.179  45.800 183.084  0.00  0.00    +0.064 A 
ATOM     19  N   LIG    1       23.306  46.013 184.113  0.00  0.00    -0.228 NA
BRANCH  18  20
ATOM     20  C   LIG    1       24.833  44.445 182.882  0.00  0.00    +0.140 C 
BRANCH  20  21
ATOM     21  N   LIG    1       26.212  44.510 183.455  0.00  0.00    -0.292 NA
ATOM     22  C   LIG    1       27.264  44.885 182.455  0.00  0.00    +0.113 C 
ATOM     23  C   LIG    1       27.479  43.717 181.459  0.00  0.00    +0.175 C 
ATOM     24  O   LIG    1       27.859  42.570 182.220  0.00  0.00    -0.377 OA
ATOM     25  C   LIG    1       26.829  42.131 183.103  0.00  0.00    +0.175 C 
ATOM     26  C   LIG    1       26.599  43.250 184.149  0.00  0.00    +0.113 C 
ENDBRANCH  20  21
ENDBRANCH  18  20
ENDBRANCH   2  15
TORSDOF 6
