REMARK VINA RESULT:      -8.4     29.210     30.506
REMARK  Name = ZINC000006086009
REMARK                            x       y       z     vdW  Elec       q    Type
REMARK                         _______ _______ _______ _____ _____    ______ ____
ROOT
ATOM      1  N   LIG    1       33.802  19.428 186.601  0.00  0.00    -0.286 NA
ATOM      2  C   LIG    1       34.512  20.510 185.872  0.00  0.00    +0.106 C 
ENDROOT
BRANCH   1   3
ATOM      3  C   LIG    1       34.676  18.857 187.709  0.00  0.00    +0.140 C 
ATOM      4  C   LIG    1       35.722  17.963 187.011  0.00  0.00    +0.034 C 
BRANCH   3   7
ATOM      5  N   LIG    1       36.757  19.691 188.749  0.00  0.00    -0.281 N 
ATOM      6  H   LIG    1       37.124  18.805 188.379  0.00  0.00    +0.155 HD
ATOM      7  C   LIG    1       35.424  19.935 188.531  0.00  0.00    +0.234 C 
ATOM      8  O   LIG    1       34.888  20.907 189.032  0.00  0.00    -0.274 OA
BRANCH   5  10
ATOM      9  C   LIG    1       38.608  21.190 189.045  0.00  0.00    +0.141 A 
ATOM     10  C   LIG    1       37.641  20.362 189.630  0.00  0.00    +0.076 A 
ATOM     11  C   LIG    1       37.570  20.234 191.017  0.00  0.00    +0.027 A 
ATOM     12  C   LIG    1       38.480  20.924 191.816  0.00  0.00    +0.002 A 
ATOM     13  C   LIG    1       39.449  21.742 191.235  0.00  0.00    +0.004 A 
ATOM     14  C   LIG    1       39.516  21.880 189.848  0.00  0.00    +0.047 A 
BRANCH   9  16
ATOM     15  C   LIG    1       39.808  21.066 186.836  0.00  0.00    +0.277 C 
ATOM     16  O   LIG    1       38.633  21.292 187.652  0.00  0.00    -0.493 OA
ENDBRANCH   9  16
ENDBRANCH   5  10
ENDBRANCH   3   7
ENDBRANCH   1   3
BRANCH   1  17
ATOM     17  C   LIG    1       33.291  18.380 185.609  0.00  0.00    +0.181 C 
BRANCH  17  18
ATOM     18  C   LIG    1       31.829  18.648 185.268  0.00  0.00    +0.231 C 
ATOM     19  N   LIG    1       31.047  17.526 185.170  0.00  0.00    -0.284 N 
ATOM     20  H   LIG    1       31.565  16.668 185.418  0.00  0.00    +0.155 HD
ATOM     21  O   LIG    1       31.392  19.763 185.069  0.00  0.00    -0.274 OA
BRANCH  19  22
ATOM     22  C   LIG    1       29.693  17.372 184.785  0.00  0.00    +0.041 A 
ATOM     23  C   LIG    1       28.702  17.457 185.814  0.00  0.00    +0.003 A 
ATOM     24  C   LIG    1       29.015  17.631 187.193  0.00  0.00    +0.010 A 
ATOM     25  C   LIG    1       28.020  17.717 188.139  0.00  0.00    +0.001 A 
ATOM     26  C   LIG    1       26.667  17.628 187.756  0.00  0.00    +0.001 A 
ATOM     27  C   LIG    1       26.333  17.448 186.436  0.00  0.00    +0.008 A 
ATOM     28  C   LIG    1       27.338  17.353 185.439  0.00  0.00    -0.016 A 
ATOM     29  C   LIG    1       26.999  17.151 184.076  0.00  0.00    +0.008 A 
ATOM     30  C   LIG    1       27.977  17.064 183.113  0.00  0.00    +0.002 A 
ATOM     31  C   LIG    1       29.334  17.180 183.463  0.00  0.00    +0.024 A 
ENDBRANCH  19  22
ENDBRANCH  17  18
ENDBRANCH   1  17
TORSDOF 7
