REMARK VINA RESULT:      -7.4     28.715     32.367
REMARK  Name = ZINC000000622956
REMARK                            x       y       z     vdW  Elec       q    Type
REMARK                         _______ _______ _______ _____ _____    ______ ____
ROOT
ATOM      1  C   LIG    1       29.231  24.636 206.634  0.00  0.00    +0.271 C 
ATOM      2  N   LIG    1       28.844  23.673 207.637  0.00  0.00    -0.157 N 
ATOM      3  C   LIG    1       29.117  22.439 207.275  0.00  0.00    +0.250 C 
ATOM      4  C   LIG    1       28.866  21.201 208.123  0.00  0.00    +0.124 C 
ATOM      5  C   LIG    1       30.240  20.662 208.581  0.00  0.00    +0.012 C 
ATOM      6  C   LIG    1       30.903  19.879 207.433  0.00  0.00    +0.004 C 
ATOM      7  C   LIG    1       31.358  20.712 206.216  0.00  0.00    +0.045 C 
ATOM      8  C   LIG    1       30.134  21.195 205.415  0.00  0.00    +0.236 C 
ATOM      9  N   LIG    1       29.658  22.413 206.084  0.00  0.00    -0.258 N 
ATOM     10  C   LIG    1       29.845  23.763 205.512  0.00  0.00    +0.323 C 
ENDROOT
BRANCH   1  11
ATOM     11  C   LIG    1       28.027  25.434 206.122  0.00  0.00    +0.034 A 
ATOM     12  C   LIG    1       26.991  24.813 205.402  0.00  0.00    +0.060 A 
ATOM     13  C   LIG    1       25.922  25.585 204.973  0.00  0.00    +0.167 A 
ATOM     14  O   LIG    1       24.847  25.165 204.274  0.00  0.00    -0.453 OA
ATOM     15  C   LIG    1       23.991  26.363 204.077  0.00  0.00    +0.466 C 
ATOM     16  O   LIG    1       24.727  27.473 204.730  0.00  0.00    -0.453 OA
ATOM     17  C   LIG    1       25.851  26.927 205.239  0.00  0.00    +0.166 A 
ATOM     18  C   LIG    1       26.849  27.571 205.952  0.00  0.00    +0.050 A 
ATOM     19  C   LIG    1       27.937  26.817 206.395  0.00  0.00    +0.014 A 
ENDBRANCH   1  11
BRANCH   2  20
ATOM     20  C   LIG    1       28.317  24.036 208.900  0.00  0.00    +0.124 A 
ATOM     21  C   LIG    1       27.051  23.569 209.251  0.00  0.00    +0.050 A 
ATOM     22  C   LIG    1       26.520  23.921 210.489  0.00  0.00    +0.024 A 
ATOM     23  C   LIG    1       27.256  24.733 211.358  0.00  0.00    +0.041 A 
ATOM     24 CL   LIG    1       26.592  25.169 212.895  0.00  0.00    -0.084 Cl
ATOM     25  C   LIG    1       28.524  25.197 210.991  0.00  0.00    +0.024 A 
ATOM     26  C   LIG    1       29.060  24.849 209.754  0.00  0.00    +0.050 A 
ENDBRANCH   2  20
BRANCH   1  27
ATOM     27  O   LIG    1       30.218  25.467 207.230  0.00  0.00    -0.347 OA
ATOM     28  H   LIG    1       30.981  25.497 206.633  0.00  0.00    +0.215 HD
ENDBRANCH   1  27
TORSDOF 3
