REMARK VINA RESULT:      -8.3     29.657     31.966
REMARK  Name = ZINC000006086011
REMARK                            x       y       z     vdW  Elec       q    Type
REMARK                         _______ _______ _______ _____ _____    ______ ____
ROOT
ATOM      1  N   LIG    1       22.055  46.191 184.047  0.00  0.00    -0.286 NA
ATOM      2  C   LIG    1       21.876  44.893 183.361  0.00  0.00    +0.106 C 
ENDROOT
BRANCH   1   3
ATOM      3  C   LIG    1       22.519  47.296 183.117  0.00  0.00    +0.140 C 
ATOM      4  C   LIG    1       24.056  47.457 183.190  0.00  0.00    +0.034 C 
BRANCH   3   7
ATOM      5  N   LIG    1       20.543  48.436 183.994  0.00  0.00    -0.281 N 
ATOM      6  H   LIG    1       20.273  47.443 184.083  0.00  0.00    +0.155 HD
ATOM      7  C   LIG    1       21.808  48.612 183.496  0.00  0.00    +0.234 C 
ATOM      8  O   LIG    1       22.310  49.717 183.414  0.00  0.00    -0.274 OA
BRANCH   5  10
ATOM      9  C   LIG    1       18.638  49.827 183.568  0.00  0.00    +0.141 A 
ATOM     10  C   LIG    1       19.590  49.364 184.489  0.00  0.00    +0.076 A 
ATOM     11  C   LIG    1       19.569  49.827 185.806  0.00  0.00    +0.027 A 
ATOM     12  C   LIG    1       18.592  50.739 186.198  0.00  0.00    +0.002 A 
ATOM     13  C   LIG    1       17.642  51.194 185.283  0.00  0.00    +0.004 A 
ATOM     14  C   LIG    1       17.663  50.742 183.965  0.00  0.00    +0.047 A 
BRANCH   9  16
ATOM     15  C   LIG    1       18.397  50.108 181.074  0.00  0.00    +0.277 C 
ATOM     16  O   LIG    1       18.696  49.337 182.265  0.00  0.00    -0.493 OA
ENDBRANCH   9  16
ENDBRANCH   5  10
ENDBRANCH   3   7
ENDBRANCH   1   3
BRANCH   1  17
ATOM     17  C   LIG    1       22.898  46.049 185.296  0.00  0.00    +0.181 C 
BRANCH  17  18
ATOM     18  C   LIG    1       22.034  46.264 186.535  0.00  0.00    +0.231 C 
ATOM     19  N   LIG    1       22.416  45.601 187.675  0.00  0.00    -0.284 N 
ATOM     20  H   LIG    1       23.277  45.040 187.600  0.00  0.00    +0.155 HD
ATOM     21  O   LIG    1       21.038  46.962 186.520  0.00  0.00    -0.274 OA
BRANCH  19  22
ATOM     22  C   LIG    1       21.741  45.559 188.917  0.00  0.00    +0.041 A 
ATOM     23  C   LIG    1       22.295  44.753 189.961  0.00  0.00    +0.003 A 
ATOM     24  C   LIG    1       23.439  43.925 189.787  0.00  0.00    +0.010 A 
ATOM     25  C   LIG    1       23.950  43.198 190.836  0.00  0.00    +0.001 A 
ATOM     26  C   LIG    1       23.337  43.251 192.102  0.00  0.00    +0.001 A 
ATOM     27  C   LIG    1       22.218  44.025 192.296  0.00  0.00    +0.008 A 
ATOM     28  C   LIG    1       21.668  44.784 191.233  0.00  0.00    -0.016 A 
ATOM     29  C   LIG    1       20.503  45.573 191.419  0.00  0.00    +0.008 A 
ATOM     30  C   LIG    1       19.984  46.320 190.387  0.00  0.00    +0.002 A 
ATOM     31  C   LIG    1       20.607  46.321 189.126  0.00  0.00    +0.024 A 
ENDBRANCH  19  22
ENDBRANCH  17  18
ENDBRANCH   1  17
TORSDOF 7
