REMARK VINA RESULT:      -8.4      3.696      6.432
REMARK  Name = ZINC000049399659
REMARK                            x       y       z     vdW  Elec       q    Type
REMARK                         _______ _______ _______ _____ _____    ______ ____
ROOT
ATOM      1  C   LIG    1       21.302  46.092 183.885  0.00  0.00    +0.173 C 
ENDROOT
BRANCH   1   4
ATOM      2  N   LIG    1       23.269  44.748 184.495  0.00  0.00    -0.282 N 
ATOM      3  H   LIG    1       23.593  45.645 184.887  0.00  0.00    +0.155 HD
ATOM      4  C   LIG    1       22.084  44.798 183.806  0.00  0.00    +0.228 C 
ATOM      5  O   LIG    1       21.692  43.849 183.159  0.00  0.00    -0.275 OA
BRANCH   2   7
ATOM      6  C   LIG    1       25.180  43.544 183.673  0.00  0.00    +0.141 A 
ATOM      7  C   LIG    1       24.192  43.676 184.662  0.00  0.00    +0.077 A 
ATOM      8  C   LIG    1       24.165  42.796 185.747  0.00  0.00    +0.047 A 
ATOM      9  C   LIG    1       25.117  41.779 185.823  0.00  0.00    +0.043 A 
ATOM     10 CL   LIG    1       25.095  40.678 187.158  0.00  0.00    -0.083 Cl
ATOM     11  C   LIG    1       26.094  41.640 184.833  0.00  0.00    +0.024 A 
ATOM     12  C   LIG    1       26.128  42.524 183.757  0.00  0.00    +0.049 A 
BRANCH   6  14
ATOM     13  C   LIG    1       26.104  45.568 182.483  0.00  0.00    +0.277 C 
ATOM     14  O   LIG    1       25.185  44.459 182.617  0.00  0.00    -0.493 OA
ENDBRANCH   6  14
ENDBRANCH   2   7
ENDBRANCH   1   4
BRANCH   1  15
ATOM     15  S   LIG    1       22.253  47.206 184.986  0.00  0.00    -0.077 S 
BRANCH  15  16
ATOM     16  C   LIG    1       21.420  47.040 186.500  0.00  0.00    +0.190 A 
ATOM     17  N   LIG    1       21.944  46.218 187.410  0.00  0.00    -0.207 NA
ATOM     18  C   LIG    1       21.315  46.090 188.566  0.00  0.00    +0.126 A 
ATOM     19  C   LIG    1       20.144  46.793 188.829  0.00  0.00    +0.063 A 
ATOM     20  C   LIG    1       19.650  47.621 187.845  0.00  0.00    +0.117 A 
ATOM     21  N   LIG    1       20.284  47.740 186.687  0.00  0.00    -0.230 NA
BRANCH  18  22
ATOM     22  N   LIG    1       21.851  45.238 189.526  0.00  0.00    -0.315 N 
ATOM     23  C   LIG    1       20.903  44.697 190.518  0.00  0.00    +0.106 C 
ATOM     24  C   LIG    1       21.732  44.392 191.779  0.00  0.00    +0.019 C 
ATOM     25  C   LIG    1       22.802  43.353 191.403  0.00  0.00    +0.003 C 
ATOM     26  C   LIG    1       23.722  43.927 190.312  0.00  0.00    +0.019 C 
ATOM     27  C   LIG    1       22.863  44.255 189.076  0.00  0.00    +0.106 C 
ENDBRANCH  18  22
ENDBRANCH  15  16
ENDBRANCH   1  15
TORSDOF 6
