REMARK VINA RESULT:      -9.0     27.258     28.690
REMARK  Name = ZINC000006083766
REMARK                            x       y       z     vdW  Elec       q    Type
REMARK                         _______ _______ _______ _____ _____    ______ ____
ROOT
ATOM      1  O   LIG    1       22.218  45.698 186.786  0.00  0.00    -0.468 OA
ENDROOT
BRANCH   1   2
ATOM      2  C   LIG    1       21.317  46.343 187.569  0.00  0.00    +0.227 A 
ATOM      3  C   LIG    1       21.255  46.058 188.944  0.00  0.00    +0.073 A 
ATOM      4  C   LIG    1       21.994  45.163 189.771  0.00  0.00    -0.023 A 
ATOM      5  C   LIG    1       23.104  44.246 189.277  0.00  0.00    +0.037 C 
ATOM      6  C   LIG    1       23.870  43.706 190.498  0.00  0.00    +0.005 C 
ATOM      7  C   LIG    1       22.916  43.204 191.595  0.00  0.00    +0.005 C 
ATOM      8  C   LIG    1       22.125  44.369 192.214  0.00  0.00    +0.043 C 
ATOM      9  C   LIG    1       21.569  45.188 191.068  0.00  0.00    -0.004 A 
ATOM     10  S   LIG    1       20.279  46.319 191.328  0.00  0.00    -0.073 S 
ATOM     11  C   LIG    1       20.293  46.757 189.656  0.00  0.00    +0.116 A 
ATOM     12  N   LIG    1       19.471  47.665 189.077  0.00  0.00    -0.228 NA
ATOM     13  C   LIG    1       19.608  47.865 187.789  0.00  0.00    +0.226 A 
ATOM     14  N   LIG    1       20.516  47.222 187.005  0.00  0.00    -0.201 NA
ENDBRANCH   1   2
BRANCH   1  15
ATOM     15  C   LIG    1       22.699  46.247 185.525  0.00  0.00    +0.310 C 
BRANCH  15  17
ATOM     16  O   LIG    1       21.125  45.557 183.890  0.00  0.00    -0.288 OA
ATOM     17  C   LIG    1       22.219  45.356 184.384  0.00  0.00    +0.200 C 
BRANCH  17  18
ATOM     18  C   LIG    1       23.086  44.302 183.857  0.00  0.00    +0.025 A 
ATOM     19  C   LIG    1       23.021  43.899 182.508  0.00  0.00    +0.061 A 
ATOM     20  C   LIG    1       23.860  42.896 182.045  0.00  0.00    +0.163 A 
ATOM     21  O   LIG    1       23.805  42.529 180.717  0.00  0.00    -0.485 OA
ATOM     22  C   LIG    1       24.917  41.754 180.174  0.00  0.00    +0.270 C 
ATOM     23  C   LIG    1       25.203  40.619 181.171  0.00  0.00    +0.270 C 
ATOM     24  O   LIG    1       25.558  41.247 182.440  0.00  0.00    -0.485 OA
ATOM     25  C   LIG    1       24.760  42.263 182.907  0.00  0.00    +0.162 A 
ATOM     26  C   LIG    1       24.846  42.652 184.238  0.00  0.00    +0.050 A 
ATOM     27  C   LIG    1       24.012  43.663 184.707  0.00  0.00    +0.015 A 
ENDBRANCH  17  18
ENDBRANCH  15  17
ENDBRANCH   1  15
TORSDOF 4
