REMARK VINA RESULT:      -9.7     27.493     29.681
REMARK  Name = ZINC000049410302
REMARK                            x       y       z     vdW  Elec       q    Type
REMARK                         _______ _______ _______ _____ _____    ______ ____
ROOT
ATOM      1  C   LIG    1       26.569  42.687 184.073  0.00  0.00    +0.314 A 
ATOM      2  O   LIG    1       26.305  41.397 184.190  0.00  0.00    -0.328 OA
ATOM      3  N   LIG    1       25.750  41.195 185.361  0.00  0.00    -0.054 NA
ATOM      4  C   LIG    1       25.691  42.358 185.926  0.00  0.00    +0.224 A 
ATOM      5  N   LIG    1       26.204  43.327 185.133  0.00  0.00    -0.182 NA
ENDROOT
BRANCH   4   6
ATOM      6  C   LIG    1       25.136  42.587 187.264  0.00  0.00    +0.153 A 
ATOM      7  N   LIG    1       25.616  42.032 188.413  0.00  0.00    -0.126 NA
ATOM      8  N   LIG    1       24.876  42.458 189.403  0.00  0.00    -0.060 NA
ATOM      9  N   LIG    1       23.929  43.280 188.902  0.00  0.00    -0.219 N 
ATOM     10  C   LIG    1       24.076  43.369 187.577  0.00  0.00    +0.148 A 
BRANCH   9  11
ATOM     11  C   LIG    1       22.927  43.937 189.706  0.00  0.00    +0.068 A 
ATOM     12  C   LIG    1       22.108  44.909 189.128  0.00  0.00    +0.047 A 
ATOM     13  C   LIG    1       21.140  45.527 189.920  0.00  0.00    +0.043 A 
ATOM     14 CL   LIG    1       20.107  46.733 189.230  0.00  0.00    -0.083 Cl
ATOM     15  C   LIG    1       21.001  45.179 191.268  0.00  0.00    +0.020 A 
ATOM     16  C   LIG    1       21.830  44.210 191.830  0.00  0.00    +0.003 A 
ATOM     17  C   LIG    1       22.800  43.583 191.054  0.00  0.00    +0.028 A 
ENDBRANCH   9  11
ENDBRANCH   4   6
BRANCH   1  20
ATOM     18  N   LIG    1       27.441  44.570 182.824  0.00  0.00    -0.278 N 
ATOM     19  H   LIG    1       27.208  45.061 183.699  0.00  0.00    +0.155 HD
ATOM     20  C   LIG    1       27.197  43.208 182.859  0.00  0.00    +0.306 C 
ATOM     21  O   LIG    1       27.524  42.507 181.903  0.00  0.00    -0.265 OA
BRANCH  18  26
ATOM     22  C   LIG    1       29.715  47.536 178.502  0.00  0.00    +0.044 C 
ATOM     23  C   LIG    1       29.119  46.764 179.659  0.00  0.00    -0.050 A 
ATOM     24  C   LIG    1       28.023  45.926 179.456  0.00  0.00    +0.005 A 
ATOM     25  C   LIG    1       27.477  45.211 180.516  0.00  0.00    +0.023 A 
ATOM     26  C   LIG    1       28.031  45.335 181.790  0.00  0.00    +0.034 A 
ATOM     27  C   LIG    1       29.137  46.161 182.003  0.00  0.00    +0.023 A 
ATOM     28  C   LIG    1       29.675  46.873 180.936  0.00  0.00    +0.005 A 
ENDBRANCH  18  26
ENDBRANCH   1  20
TORSDOF 4
