REMARK VINA RESULT:      -7.9     29.969     30.962
REMARK  Name = ZINC000049399659
REMARK                            x       y       z     vdW  Elec       q    Type
REMARK                         _______ _______ _______ _____ _____    ______ ____
ROOT
ATOM      1  C   LIG    1       26.311  17.254 187.668  0.00  0.00    +0.173 C 
ENDROOT
BRANCH   1   4
ATOM      2  N   LIG    1       27.839  16.828 185.787  0.00  0.00    -0.282 N 
ATOM      3  H   LIG    1       28.417  16.404 186.529  0.00  0.00    +0.155 HD
ATOM      4  C   LIG    1       26.692  17.448 186.216  0.00  0.00    +0.228 C 
ATOM      5  O   LIG    1       26.024  18.125 185.462  0.00  0.00    -0.275 OA
BRANCH   2   7
ATOM      6  C   LIG    1       29.723  17.296 184.372  0.00  0.00    +0.141 A 
ATOM      7  C   LIG    1       28.426  16.771 184.491  0.00  0.00    +0.077 A 
ATOM      8  C   LIG    1       27.790  16.214 183.379  0.00  0.00    +0.047 A 
ATOM      9  C   LIG    1       28.452  16.201 182.151  0.00  0.00    +0.043 A 
ATOM     10 CL   LIG    1       27.678  15.517 180.762  0.00  0.00    -0.083 Cl
ATOM     11  C   LIG    1       29.740  16.733 182.029  0.00  0.00    +0.024 A 
ATOM     12  C   LIG    1       30.378  17.280 183.140  0.00  0.00    +0.049 A 
BRANCH   6  14
ATOM     13  C   LIG    1       31.523  18.644 185.515  0.00  0.00    +0.277 C 
ATOM     14  O   LIG    1       30.331  17.824 185.513  0.00  0.00    -0.493 OA
ENDBRANCH   6  14
ENDBRANCH   2   7
ENDBRANCH   1   4
BRANCH   1  15
ATOM     15  S   LIG    1       27.864  17.387 188.633  0.00  0.00    -0.077 S 
BRANCH  15  16
ATOM     16  C   LIG    1       27.425  16.673 190.153  0.00  0.00    +0.190 A 
ATOM     17  N   LIG    1       28.156  16.991 191.222  0.00  0.00    -0.207 NA
ATOM     18  C   LIG    1       27.824  16.453 192.383  0.00  0.00    +0.126 A 
ATOM     19  C   LIG    1       26.743  15.583 192.490  0.00  0.00    +0.063 A 
ATOM     20  C   LIG    1       26.033  15.289 191.347  0.00  0.00    +0.117 A 
ATOM     21  N   LIG    1       26.375  15.829 190.186  0.00  0.00    -0.230 NA
BRANCH  18  22
ATOM     22  N   LIG    1       28.575  16.777 193.508  0.00  0.00    -0.315 N 
ATOM     23  C   LIG    1       29.805  15.990 193.718  0.00  0.00    +0.106 C 
ATOM     24  C   LIG    1       30.074  16.014 195.234  0.00  0.00    +0.019 C 
ATOM     25  C   LIG    1       30.269  17.481 195.657  0.00  0.00    +0.003 C 
ATOM     26  C   LIG    1       28.993  18.283 195.350  0.00  0.00    +0.019 C 
ATOM     27  C   LIG    1       28.728  18.213 193.834  0.00  0.00    +0.106 C 
ENDBRANCH  18  22
ENDBRANCH  15  16
ENDBRANCH   1  15
TORSDOF 6
