REMARK VINA RESULT:      -7.3     30.820     34.405
REMARK  Name = ZINC000009107243
REMARK                            x       y       z     vdW  Elec       q    Type
REMARK                         _______ _______ _______ _____ _____    ______ ____
ROOT
ATOM      1  N   LIG    1       16.836  38.210 208.704  0.00  0.00    -0.285 N 
ATOM      2  H   LIG    1       16.852  37.757 207.780  0.00  0.00    +0.155 HD
ATOM      3  C   LIG    1       15.670  38.037 209.407  0.00  0.00    +0.222 C 
ATOM      4  O   LIG    1       15.589  38.372 210.570  0.00  0.00    -0.275 OA
ENDROOT
BRANCH   1   9
ATOM      5  N   LIG    1       21.586  40.692 210.398  0.00  0.00    -0.271 N 
ATOM      6  C   LIG    1       20.381  40.062 209.950  0.00  0.00    +0.040 A 
ATOM      7  C   LIG    1       19.816  40.369 208.705  0.00  0.00    +0.025 A 
ATOM      8  C   LIG    1       18.644  39.739 208.308  0.00  0.00    +0.025 A 
ATOM      9  C   LIG    1       18.040  38.804 209.151  0.00  0.00    +0.034 A 
ATOM     10  C   LIG    1       18.600  38.497 210.394  0.00  0.00    +0.028 A 
ATOM     11  C   LIG    1       19.779  39.118 210.797  0.00  0.00    -0.024 A 
ATOM     12  C   LIG    1       20.397  38.788 212.142  0.00  0.00    +0.046 C 
ATOM     13  C   LIG    1       21.915  38.727 211.897  0.00  0.00    +0.101 C 
ATOM     14  C   LIG    1       22.328  40.097 211.405  0.00  0.00    +0.220 C 
ATOM     15  O   LIG    1       23.289  40.675 211.880  0.00  0.00    -0.275 OA
BRANCH   5  16
ATOM     16  C   LIG    1       22.013  42.006 209.875  0.00  0.00    +0.113 C 
BRANCH  16  18
ATOM     17  C   LIG    1       23.917  43.090 208.722  0.00  0.00    +0.005 C 
ATOM     18  C   LIG    1       23.252  41.735 208.999  0.00  0.00    +0.016 C 
ENDBRANCH  16  18
ENDBRANCH   5  16
ENDBRANCH   1   9
BRANCH   3  19
ATOM     19  C   LIG    1       14.497  37.410 208.676  0.00  0.00    +0.131 C 
BRANCH  19  20
ATOM     20  C   LIG    1       14.775  35.920 208.526  0.00  0.00    -0.035 A 
ATOM     21  C   LIG    1       15.724  35.467 207.607  0.00  0.00    +0.053 A 
ATOM     22  C   LIG    1       15.998  34.101 207.496  0.00  0.00    +0.162 A 
ATOM     23  C   LIG    1       15.313  33.183 208.313  0.00  0.00    +0.161 A 
ATOM     24  C   LIG    1       14.364  33.639 209.222  0.00  0.00    +0.049 A 
ATOM     25  C   LIG    1       14.096  35.001 209.328  0.00  0.00    +0.008 A 
BRANCH  22  26
ATOM     26  O   LIG    1       16.950  33.664 206.581  0.00  0.00    -0.491 OA
ATOM     27  C   LIG    1       18.059  34.431 206.061  0.00  0.00    +0.277 C 
ENDBRANCH  22  26
BRANCH  23  28
ATOM     28  O   LIG    1       15.502  31.806 208.298  0.00  0.00    -0.491 OA
ATOM     29  C   LIG    1       14.696  30.790 208.935  0.00  0.00    +0.277 C 
ENDBRANCH  23  28
ENDBRANCH  19  20
ENDBRANCH   3  19
TORSDOF 7
