REMARK VINA RESULT:      -7.7      6.041     10.335
REMARK  Name = ZINC000009107243
REMARK                            x       y       z     vdW  Elec       q    Type
REMARK                         _______ _______ _______ _____ _____    ______ ____
ROOT
ATOM      1  N   LIG    1       26.222  15.651 189.002  0.00  0.00    -0.285 N 
ATOM      2  H   LIG    1       25.971  14.710 188.668  0.00  0.00    +0.155 HD
ATOM      3  C   LIG    1       26.122  16.640 188.057  0.00  0.00    +0.222 C 
ATOM      4  O   LIG    1       26.222  17.810 188.366  0.00  0.00    -0.275 OA
ENDROOT
BRANCH   1   9
ATOM      5  N   LIG    1       27.195  16.090 194.521  0.00  0.00    -0.271 N 
ATOM      6  C   LIG    1       26.930  15.977 193.118  0.00  0.00    +0.040 A 
ATOM      7  C   LIG    1       25.798  15.303 192.641  0.00  0.00    +0.025 A 
ATOM      8  C   LIG    1       25.578  15.211 191.273  0.00  0.00    +0.025 A 
ATOM      9  C   LIG    1       26.485  15.794 190.386  0.00  0.00    +0.034 A 
ATOM     10  C   LIG    1       27.616  16.466 190.858  0.00  0.00    +0.028 A 
ATOM     11  C   LIG    1       27.840  16.569 192.228  0.00  0.00    -0.024 A 
ATOM     12  C   LIG    1       29.062  17.300 192.751  0.00  0.00    +0.046 C 
ATOM     13  C   LIG    1       28.577  18.092 193.977  0.00  0.00    +0.101 C 
ATOM     14  C   LIG    1       28.057  17.076 194.971  0.00  0.00    +0.220 C 
ATOM     15  O   LIG    1       28.386  17.113 196.143  0.00  0.00    -0.275 OA
BRANCH   5  16
ATOM     16  C   LIG    1       26.641  15.125 195.493  0.00  0.00    +0.113 C 
BRANCH  16  18
ATOM     17  C   LIG    1       25.355  15.593 197.557  0.00  0.00    +0.005 C 
ATOM     18  C   LIG    1       25.342  15.760 196.031  0.00  0.00    +0.016 C 
ENDBRANCH  16  18
ENDBRANCH   5  16
ENDBRANCH   1   9
BRANCH   3  19
ATOM     19  C   LIG    1       25.879  16.216 186.620  0.00  0.00    +0.131 C 
BRANCH  19  20
ATOM     20  C   LIG    1       27.090  16.629 185.794  0.00  0.00    -0.035 A 
ATOM     21  C   LIG    1       26.942  16.988 184.453  0.00  0.00    +0.053 A 
ATOM     22  C   LIG    1       28.052  17.396 183.708  0.00  0.00    +0.162 A 
ATOM     23  C   LIG    1       29.320  17.442 184.315  0.00  0.00    +0.161 A 
ATOM     24  C   LIG    1       29.463  17.077 185.649  0.00  0.00    +0.049 A 
ATOM     25  C   LIG    1       28.354  16.672 186.386  0.00  0.00    +0.008 A 
BRANCH  22  26
ATOM     26  O   LIG    1       27.889  17.757 182.376  0.00  0.00    -0.491 OA
ATOM     27  C   LIG    1       28.006  16.886 181.227  0.00  0.00    +0.277 C 
ENDBRANCH  22  26
BRANCH  23  28
ATOM     28  O   LIG    1       30.493  17.835 183.681  0.00  0.00    -0.491 OA
ATOM     29  C   LIG    1       31.312  17.069 182.769  0.00  0.00    +0.277 C 
ENDBRANCH  23  28
ENDBRANCH  19  20
ENDBRANCH   3  19
TORSDOF 7
