REMARK VINA RESULT:      -7.9      1.771      3.545
REMARK  Name = ZINC000006087399
REMARK                            x       y       z     vdW  Elec       q    Type
REMARK                         _______ _______ _______ _____ _____    ______ ____
ROOT
ATOM      1  C   LIG    1       22.928  47.524 182.948  0.00  0.00    +0.214 C 
ENDROOT
BRANCH   1   7
ATOM      2  C   LIG    1       18.142  50.143 183.352  0.00  0.00    +0.010 C 
ATOM      3  C   LIG    1       19.359  50.599 184.189  0.00  0.00    +0.018 C 
ATOM      4  C   LIG    1       20.205  49.395 184.726  0.00  0.00    +0.115 C 
ATOM      5  C   LIG    1       20.713  48.469 183.618  0.00  0.00    +0.247 C 
ATOM      6  O   LIG    1       20.103  47.769 182.829  0.00  0.00    -0.273 OA
ATOM      7  N   LIG    1       22.073  48.476 183.662  0.00  0.00    -0.215 N 
ATOM      8  C   LIG    1       22.515  49.281 184.672  0.00  0.00    +0.310 C 
ATOM      9  O   LIG    1       23.678  49.417 185.005  0.00  0.00    -0.252 OA
ATOM     10  N   LIG    1       21.469  49.896 185.256  0.00  0.00    -0.285 N 
ATOM     11  H   LIG    1       21.578  50.284 186.199  0.00  0.00    +0.151 HD
ATOM     12  C   LIG    1       19.475  48.572 185.820  0.00  0.00    +0.035 C 
ATOM     13  C   LIG    1       19.034  49.503 186.968  0.00  0.00    +0.003 C 
ATOM     14  C   LIG    1       18.164  50.661 186.464  0.00  0.00    +0.000 C 
ATOM     15  C   LIG    1       18.897  51.467 185.380  0.00  0.00    +0.006 C 
ENDBRANCH   1   7
BRANCH   1  16
ATOM     16  C   LIG    1       22.990  46.218 183.743  0.00  0.00    +0.238 C 
ATOM     17  N   LIG    1       22.843  45.029 183.050  0.00  0.00    -0.267 N 
ATOM     18  O   LIG    1       23.166  46.172 184.954  0.00  0.00    -0.274 OA
BRANCH  17  19
ATOM     19  C   LIG    1       22.654  45.002 181.650  0.00  0.00    +0.010 C 
ATOM     20  C   LIG    1       23.916  45.169 180.824  0.00  0.00    +0.051 C 
ATOM     21  C   LIG    1       23.490  45.574 179.395  0.00  0.00    +0.006 C 
ATOM     22  C   LIG    1       22.453  44.543 178.903  0.00  0.00    +0.004 C 
ATOM     23  C   LIG    1       21.128  44.791 179.658  0.00  0.00    +0.029 C 
ATOM     24  C   LIG    1       21.422  44.813 181.146  0.00  0.00    -0.008 C 
ENDBRANCH  17  19
BRANCH  17  25
ATOM     25  C   LIG    1       22.744  43.758 183.787  0.00  0.00    +0.187 C 
BRANCH  25  26
ATOM     26  C   LIG    1       24.101  43.096 183.648  0.00  0.00    +0.122 A 
ATOM     27  O   LIG    1       24.319  42.162 182.680  0.00  0.00    -0.466 OA
ATOM     28  C   LIG    1       25.603  41.741 182.806  0.00  0.00    +0.195 A 
ATOM     29  C   LIG    1       26.193  42.393 183.832  0.00  0.00    +0.041 A 
ATOM     30  C   LIG    1       25.235  43.258 184.369  0.00  0.00    +0.046 A 
ENDBRANCH  25  26
ENDBRANCH  17  25
ENDBRANCH   1  16
TORSDOF 5
