REMARK VINA RESULT:      -8.5      0.000      0.000
REMARK  Name = ZINC000009107243
REMARK                            x       y       z     vdW  Elec       q    Type
REMARK                         _______ _______ _______ _____ _____    ______ ____
ROOT
ATOM      1  N   LIG    1       33.481  18.633 184.932  0.00  0.00    -0.285 N 
ATOM      2  H   LIG    1       34.253  18.222 184.389  0.00  0.00    +0.155 HD
ATOM      3  C   LIG    1       33.832  19.715 185.699  0.00  0.00    +0.222 C 
ATOM      4  O   LIG    1       32.986  20.390 186.248  0.00  0.00    -0.275 OA
ENDROOT
BRANCH   1   9
ATOM      5  N   LIG    1       28.380  16.518 183.878  0.00  0.00    -0.271 N 
ATOM      6  C   LIG    1       29.679  17.064 184.130  0.00  0.00    +0.040 A 
ATOM      7  C   LIG    1       30.590  17.292 183.090  0.00  0.00    +0.025 A 
ATOM      8  C   LIG    1       31.843  17.819 183.376  0.00  0.00    +0.025 A 
ATOM      9  C   LIG    1       32.183  18.118 184.697  0.00  0.00    +0.034 A 
ATOM     10  C   LIG    1       31.278  17.890 185.737  0.00  0.00    +0.028 A 
ATOM     11  C   LIG    1       30.017  17.370 185.458  0.00  0.00    -0.024 A 
ATOM     12  C   LIG    1       29.026  17.123 186.580  0.00  0.00    +0.046 C 
ATOM     13  C   LIG    1       27.658  17.557 186.026  0.00  0.00    +0.101 C 
ATOM     14  C   LIG    1       27.381  16.682 184.822  0.00  0.00    +0.220 C 
ATOM     15  O   LIG    1       26.307  16.126 184.680  0.00  0.00    -0.275 OA
BRANCH   5  16
ATOM     16  C   LIG    1       28.101  15.709 182.673  0.00  0.00    +0.113 C 
BRANCH  16  18
ATOM     17  C   LIG    1       28.207  16.397 180.298  0.00  0.00    +0.005 C 
ATOM     18  C   LIG    1       27.507  16.681 181.634  0.00  0.00    +0.016 C 
ENDBRANCH  16  18
ENDBRANCH   5  16
ENDBRANCH   1   9
BRANCH   3  19
ATOM     19  C   LIG    1       35.310  20.032 185.829  0.00  0.00    +0.131 C 
BRANCH  19  20
ATOM     20  C   LIG    1       35.777  19.558 187.199  0.00  0.00    -0.035 A 
ATOM     21  C   LIG    1       36.163  20.481 188.173  0.00  0.00    +0.053 A 
ATOM     22  C   LIG    1       36.561  20.042 189.438  0.00  0.00    +0.162 A 
ATOM     23  C   LIG    1       36.572  18.665 189.727  0.00  0.00    +0.161 A 
ATOM     24  C   LIG    1       36.193  17.749 188.752  0.00  0.00    +0.049 A 
ATOM     25  C   LIG    1       35.797  18.193 187.493  0.00  0.00    +0.008 A 
BRANCH  22  26
ATOM     26  O   LIG    1       36.936  20.972 190.401  0.00  0.00    -0.491 OA
ATOM     27  C   LIG    1       36.084  21.557 191.412  0.00  0.00    +0.277 C 
ENDBRANCH  22  26
BRANCH  23  28
ATOM     28  O   LIG    1       36.941  18.109 190.946  0.00  0.00    -0.491 OA
ATOM     29  C   LIG    1       36.983  16.712 191.312  0.00  0.00    +0.277 C 
ENDBRANCH  23  28
ENDBRANCH  19  20
ENDBRANCH   3  19
TORSDOF 7
