REMARK VINA RESULT:      -7.4      4.671      6.498
REMARK  Name = ZINC000006087400
REMARK                            x       y       z     vdW  Elec       q    Type
REMARK                         _______ _______ _______ _____ _____    ______ ____
ROOT
ATOM      1  C   LIG    1       21.973  46.434 182.995  0.00  0.00    +0.214 C 
ENDROOT
BRANCH   1   7
ATOM      2  C   LIG    1       18.532  48.802 184.607  0.00  0.00    +0.010 C 
ATOM      3  C   LIG    1       19.480  49.981 184.919  0.00  0.00    +0.018 C 
ATOM      4  C   LIG    1       20.987  49.568 184.832  0.00  0.00    +0.115 C 
ATOM      5  C   LIG    1       21.356  48.805 183.554  0.00  0.00    +0.247 C 
ATOM      6  O   LIG    1       21.382  49.165 182.391  0.00  0.00    -0.273 OA
ATOM      7  N   LIG    1       21.708  47.541 183.920  0.00  0.00    -0.215 N 
ATOM      8  C   LIG    1       21.622  47.395 185.278  0.00  0.00    +0.310 C 
ATOM      9  O   LIG    1       21.812  46.360 185.889  0.00  0.00    -0.252 OA
ATOM     10  N   LIG    1       21.280  48.567 185.847  0.00  0.00    -0.285 N 
ATOM     11  H   LIG    1       20.891  48.567 186.797  0.00  0.00    +0.151 HD
ATOM     12  C   LIG    1       21.918  50.778 185.098  0.00  0.00    +0.035 C 
ATOM     13  C   LIG    1       21.589  51.917 184.114  0.00  0.00    +0.003 C 
ATOM     14  C   LIG    1       20.115  52.330 184.204  0.00  0.00    +0.000 C 
ATOM     15  C   LIG    1       19.197  51.131 183.934  0.00  0.00    +0.006 C 
ENDBRANCH   1   7
BRANCH   1  16
ATOM     16  C   LIG    1       23.492  46.320 182.841  0.00  0.00    +0.238 C 
ATOM     17  N   LIG    1       24.035  45.418 181.938  0.00  0.00    -0.267 N 
ATOM     18  O   LIG    1       24.250  47.016 183.500  0.00  0.00    -0.274 OA
BRANCH  17  19
ATOM     19  C   LIG    1       23.242  44.483 181.231  0.00  0.00    +0.010 C 
ATOM     20  C   LIG    1       22.727  43.314 182.051  0.00  0.00    +0.051 C 
ATOM     21  C   LIG    1       22.334  42.189 181.067  0.00  0.00    +0.006 C 
ATOM     22  C   LIG    1       21.368  42.793 180.028  0.00  0.00    +0.004 C 
ATOM     23  C   LIG    1       22.180  43.705 179.083  0.00  0.00    +0.029 C 
ATOM     24  C   LIG    1       22.987  44.676 179.925  0.00  0.00    -0.008 C 
ENDBRANCH  17  19
BRANCH  17  25
ATOM     25  C   LIG    1       25.497  45.371 181.750  0.00  0.00    +0.187 C 
BRANCH  25  26
ATOM     26  C   LIG    1       25.973  44.159 182.525  0.00  0.00    +0.122 A 
ATOM     27  O   LIG    1       25.887  44.128 183.884  0.00  0.00    -0.466 OA
ATOM     28  C   LIG    1       26.393  42.938 184.294  0.00  0.00    +0.195 A 
ATOM     29  C   LIG    1       26.794  42.223 183.220  0.00  0.00    +0.041 A 
ATOM     30  C   LIG    1       26.527  43.003 182.090  0.00  0.00    +0.046 A 
ENDBRANCH  25  26
ENDBRANCH  17  25
ENDBRANCH   1  16
TORSDOF 5
