REMARK VINA RESULT:      -6.1     20.422     22.489
REMARK  Name = ZINC000000622877
REMARK                            x       y       z     vdW  Elec       q    Type
REMARK                         _______ _______ _______ _____ _____    ______ ____
ROOT
ATOM      1  O   LIG    1       23.935  47.080 207.939  0.00  0.00    -0.274 OA
ATOM      2  C   LIG    1       24.878  46.549 208.504  0.00  0.00    +0.235 C 
ATOM      3  N   LIG    1       25.353  47.068 209.670  0.00  0.00    -0.219 N 
ATOM      4  H   LIG    1       26.020  46.536 210.253  0.00  0.00    +0.176 HD
ENDROOT
BRANCH   3   5
ATOM      5  N   LIG    1       24.751  48.264 210.288  0.00  0.00    -0.217 N 
ATOM      6  C   LIG    1       23.693  48.191 211.210  0.00  0.00    +0.079 A 
ATOM      7  C   LIG    1       23.456  49.411 211.755  0.00  0.00    +0.078 A 
ATOM      8  S   LIG    1       24.485  50.655 211.123  0.00  0.00    -0.033 S 
ATOM      9  C   LIG    1       25.287  49.516 210.087  0.00  0.00    +0.308 A 
ATOM     10  O   LIG    1       26.197  49.759 209.264  0.00  0.00    -0.258 OA
BRANCH   6  11
ATOM     11  C   LIG    1       22.994  46.943 211.484  0.00  0.00    +0.001 A 
ATOM     12  C   LIG    1       23.565  45.962 212.306  0.00  0.00    +0.010 A 
ATOM     13  C   LIG    1       22.898  44.768 212.558  0.00  0.00    +0.001 A 
ATOM     14  C   LIG    1       21.649  44.535 211.993  0.00  0.00    +0.000 A 
ATOM     15  C   LIG    1       21.068  45.501 211.176  0.00  0.00    +0.001 A 
ATOM     16  C   LIG    1       21.736  46.694 210.925  0.00  0.00    +0.010 A 
ENDBRANCH   6  11
ENDBRANCH   3   5
BRANCH   2  17
ATOM     17  C   LIG    1       25.549  45.306 207.954  0.00  0.00    +0.132 C 
BRANCH  17  18
ATOM     18  C   LIG    1       25.075  44.111 208.771  0.00  0.00    -0.039 A 
ATOM     19  C   LIG    1       25.785  43.700 209.899  0.00  0.00    +0.005 A 
ATOM     20  C   LIG    1       25.338  42.619 210.653  0.00  0.00    +0.015 A 
ATOM     21  C   LIG    1       24.180  41.940 210.286  0.00  0.00    +0.018 A 
ATOM     22 BR   LIG    1       23.573  40.473 211.315  0.00  0.00    -0.050 Br
ATOM     23  C   LIG    1       23.470  42.345 209.159  0.00  0.00    +0.015 A 
ATOM     24  C   LIG    1       23.917  43.425 208.403  0.00  0.00    +0.005 A 
ENDBRANCH  17  18
ENDBRANCH   2  17
TORSDOF 4
