REMARK VINA RESULT:      -9.4      1.796      2.166
REMARK  Name = ZINC000009035748
REMARK                            x       y       z     vdW  Elec       q    Type
REMARK                         _______ _______ _______ _____ _____    ______ ____
ROOT
ATOM      1  C   LIG    1       25.329  35.548 198.710  0.00  0.00    +0.218 C 
ATOM      2  N   LIG    1       26.173  34.652 199.272  0.00  0.00    -0.297 N 
ATOM      3  C   LIG    1       25.598  33.685 200.243  0.00  0.00    +0.143 C 
ATOM      4  C   LIG    1       26.679  33.176 201.195  0.00  0.00    -0.025 A 
ATOM      5  C   LIG    1       26.332  32.187 202.115  0.00  0.00    +0.028 A 
ATOM      6  C   LIG    1       27.288  31.691 203.001  0.00  0.00    +0.034 A 
ATOM      7  C   LIG    1       28.592  32.186 202.989  0.00  0.00    +0.023 A 
ATOM      8  C   LIG    1       28.936  33.173 202.074  0.00  0.00    +0.006 A 
ATOM      9  C   LIG    1       27.990  33.668 201.175  0.00  0.00    -0.041 A 
ATOM     10  C   LIG    1       28.387  34.745 200.188  0.00  0.00    +0.054 C 
ATOM     11  C   LIG    1       27.594  34.470 198.902  0.00  0.00    +0.113 C 
ATOM     12  O   LIG    1       24.131  35.526 198.986  0.00  0.00    -0.275 OA
ENDROOT
BRANCH   6  13
ATOM     13  N   LIG    1       26.869  30.699 203.919  0.00  0.00    -0.283 N 
ATOM     14  H   LIG    1       26.005  30.879 204.446  0.00  0.00    +0.155 HD
ATOM     15  C   LIG    1       27.483  29.504 204.205  0.00  0.00    +0.255 C 
ATOM     16  O   LIG    1       28.508  29.176 203.641  0.00  0.00    -0.272 OA
BRANCH  15  17
ATOM     17  C   LIG    1       26.803  28.597 205.213  0.00  0.00    +0.324 C 
BRANCH  17  18
ATOM     18  O   LIG    1       26.962  27.216 204.742  0.00  0.00    -0.483 OA
BRANCH  18  19
ATOM     19  C   LIG    1       27.358  26.161 205.537  0.00  0.00    +0.121 A 
ATOM     20  C   LIG    1       27.656  26.447 206.868  0.00  0.00    +0.047 A 
ATOM     21  C   LIG    1       28.059  25.423 207.718  0.00  0.00    +0.023 A 
ATOM     22  C   LIG    1       28.164  24.117 207.234  0.00  0.00    +0.041 A 
ATOM     23 CL   LIG    1       28.667  22.843 208.292  0.00  0.00    -0.084 Cl
ATOM     24  C   LIG    1       27.866  23.835 205.898  0.00  0.00    +0.023 A 
ATOM     25  C   LIG    1       27.461  24.857 205.045  0.00  0.00    +0.047 A 
ENDBRANCH  18  19
ENDBRANCH  17  18
ENDBRANCH  15  17
ENDBRANCH   6  13
BRANCH   1  27
ATOM     26  C   LIG    1       27.001  37.433 198.234  0.00  0.00    +0.017 C 
ATOM     27  C   LIG    1       25.837  36.589 197.679  0.00  0.00    +0.069 C 
ATOM     28  C   LIG    1       26.313  35.947 196.362  0.00  0.00    +0.017 C 
ENDBRANCH   1  27
TORSDOF 5
