REMARK VINA RESULT:      -7.8     25.549     27.481
REMARK  Name = ZINC000006087320
REMARK                            x       y       z     vdW  Elec       q    Type
REMARK                         _______ _______ _______ _____ _____    ______ ____
ROOT
ATOM      1  C   LIG    1       23.313  45.110 181.912  0.00  0.00    +0.222 C 
ENDROOT
BRANCH   1   2
ATOM      2  N   LIG    1       22.613  46.188 182.651  0.00  0.00    -0.290 N 
ATOM      3  C   LIG    1       23.270  47.361 182.977  0.00  0.00    +0.262 A 
ATOM      4  O   LIG    1       24.455  47.460 182.643  0.00  0.00    -0.267 OA
ATOM      5  C   LIG    1       22.536  48.378 183.698  0.00  0.00    +0.068 A 
ATOM      6  C   LIG    1       23.117  49.608 184.043  0.00  0.00    +0.035 A 
ATOM      7  C   LIG    1       22.375  50.555 184.740  0.00  0.00    +0.043 A 
ATOM      8 CL   LIG    1       23.095  52.069 185.166  0.00  0.00    -0.083 Cl
ATOM      9  C   LIG    1       21.052  50.291 185.101  0.00  0.00    +0.042 A 
ATOM     10  C   LIG    1       20.472  49.074 184.762  0.00  0.00    +0.068 A 
ATOM     11 CL   LIG    1       18.825  48.781 185.227  0.00  0.00    -0.081 Cl
ATOM     12  C   LIG    1       21.210  48.099 184.055  0.00  0.00    +0.096 A 
ATOM     13  N   LIG    1       20.647  46.857 183.706  0.00  0.00    -0.235 NA
ATOM     14  C   LIG    1       21.308  45.974 183.060  0.00  0.00    +0.203 A 
ENDBRANCH   1   2
BRANCH   1  17
ATOM     15  N   LIG    1       24.135  43.982 183.943  0.00  0.00    -0.284 N 
ATOM     16  H   LIG    1       24.606  44.896 184.065  0.00  0.00    +0.155 HD
ATOM     17  C   LIG    1       23.357  43.888 182.815  0.00  0.00    +0.237 C 
ATOM     18  O   LIG    1       22.719  42.890 182.556  0.00  0.00    -0.274 OA
BRANCH  15  20
ATOM     19  C   LIG    1       25.580  42.238 184.798  0.00  0.00    -0.026 A 
ATOM     20  C   LIG    1       24.413  43.011 184.941  0.00  0.00    +0.037 A 
ATOM     21  C   LIG    1       23.576  42.839 186.048  0.00  0.00    +0.023 A 
ATOM     22  C   LIG    1       23.884  41.877 187.003  0.00  0.00    +0.002 A 
ATOM     23  C   LIG    1       25.026  41.095 186.862  0.00  0.00    +0.000 A 
ATOM     24  C   LIG    1       25.866  41.277 185.767  0.00  0.00    +0.005 A 
BRANCH  19  26
ATOM     25  C   LIG    1       26.042  41.446 182.522  0.00  0.00    +0.009 C 
ATOM     26  C   LIG    1       26.537  42.395 183.622  0.00  0.00    +0.033 C 
ENDBRANCH  19  26
ENDBRANCH  15  20
ENDBRANCH   1  17
TORSDOF 4
