REMARK VINA RESULT:      -9.5      0.000      0.000
REMARK  Name = ZINC000009035748
REMARK                            x       y       z     vdW  Elec       q    Type
REMARK                         _______ _______ _______ _____ _____    ______ ____
ROOT
ATOM      1  C   LIG    1       25.299  35.426 198.854  0.00  0.00    +0.218 C 
ATOM      2  N   LIG    1       26.151  34.535 199.410  0.00  0.00    -0.297 N 
ATOM      3  C   LIG    1       25.582  33.545 200.361  0.00  0.00    +0.143 C 
ATOM      4  C   LIG    1       26.661  33.037 201.316  0.00  0.00    -0.025 A 
ATOM      5  C   LIG    1       26.321  32.030 202.217  0.00  0.00    +0.028 A 
ATOM      6  C   LIG    1       27.276  31.534 203.104  0.00  0.00    +0.034 A 
ATOM      7  C   LIG    1       28.572  32.049 203.112  0.00  0.00    +0.023 A 
ATOM      8  C   LIG    1       28.911  33.054 202.215  0.00  0.00    +0.006 A 
ATOM      9  C   LIG    1       27.965  33.549 201.314  0.00  0.00    -0.041 A 
ATOM     10  C   LIG    1       28.355  34.647 200.347  0.00  0.00    +0.054 C 
ATOM     11  C   LIG    1       27.578  34.379 199.050  0.00  0.00    +0.113 C 
ATOM     12  O   LIG    1       24.099  35.383 199.118  0.00  0.00    -0.275 OA
ENDROOT
BRANCH   6  13
ATOM     13  N   LIG    1       26.864  30.523 204.004  0.00  0.00    -0.283 N 
ATOM     14  H   LIG    1       25.967  30.660 204.488  0.00  0.00    +0.155 HD
ATOM     15  C   LIG    1       27.522  29.360 204.321  0.00  0.00    +0.255 C 
ATOM     16  O   LIG    1       28.588  29.083 203.808  0.00  0.00    -0.272 OA
BRANCH  15  17
ATOM     17  C   LIG    1       26.840  28.420 205.298  0.00  0.00    +0.324 C 
BRANCH  17  18
ATOM     18  O   LIG    1       27.412  27.083 205.096  0.00  0.00    -0.483 OA
BRANCH  18  19
ATOM     19  C   LIG    1       26.741  26.026 204.519  0.00  0.00    +0.121 A 
ATOM     20  C   LIG    1       27.515  24.987 204.008  0.00  0.00    +0.047 A 
ATOM     21  C   LIG    1       26.894  23.893 203.416  0.00  0.00    +0.023 A 
ATOM     22  C   LIG    1       25.500  23.842 203.337  0.00  0.00    +0.041 A 
ATOM     23 CL   LIG    1       24.727  22.481 202.599  0.00  0.00    -0.084 Cl
ATOM     24  C   LIG    1       24.726  24.887 203.850  0.00  0.00    +0.023 A 
ATOM     25  C   LIG    1       25.345  25.983 204.444  0.00  0.00    +0.047 A 
ENDBRANCH  18  19
ENDBRANCH  17  18
ENDBRANCH  15  17
ENDBRANCH   6  13
BRANCH   1  27
ATOM     26  C   LIG    1       26.949  37.341 198.420  0.00  0.00    +0.017 C 
ATOM     27  C   LIG    1       25.801  36.491 197.843  0.00  0.00    +0.069 C 
ATOM     28  C   LIG    1       26.295  35.875 196.520  0.00  0.00    +0.017 C 
ENDBRANCH   1  27
TORSDOF 5
