REMARK VINA RESULT:      -8.0      1.511      2.006
REMARK  Name = ZINC000022624335
REMARK                            x       y       z     vdW  Elec       q    Type
REMARK                         _______ _______ _______ _____ _____    ______ ____
ROOT
ATOM      1  C   LIG    1       36.346  20.343 188.207  0.00  0.00    +0.121 A 
ATOM      2  N   LIG    1       35.730  19.192 188.509  0.00  0.00    -0.238 NA
ATOM      3  C   LIG    1       34.900  18.653 187.615  0.00  0.00    +0.136 A 
ATOM      4  C   LIG    1       34.659  19.249 186.372  0.00  0.00    +0.052 A 
ATOM      5  C   LIG    1       35.304  20.439 186.039  0.00  0.00    +0.028 A 
ATOM      6  C   LIG    1       36.162  20.987 186.975  0.00  0.00    +0.045 A 
ENDROOT
BRANCH   1  11
ATOM      7  C   LIG    1       39.689  20.767 192.302  0.00  0.00    +0.221 C 
ATOM      8  N   LIG    1       38.927  21.372 191.353  0.00  0.00    -0.298 N 
ATOM      9  C   LIG    1       37.504  21.788 191.433  0.00  0.00    +0.126 C 
ATOM     10  C   LIG    1       36.688  20.802 190.560  0.00  0.00    +0.125 C 
ATOM     11  N   LIG    1       37.197  20.901 189.168  0.00  0.00    -0.312 N 
ATOM     12  C   LIG    1       38.642  20.522 189.082  0.00  0.00    +0.125 C 
ATOM     13  C   LIG    1       39.439  21.515 189.958  0.00  0.00    +0.126 C 
ATOM     14  O   LIG    1       40.819  20.389 191.995  0.00  0.00    -0.275 OA
BRANCH   7  15
ATOM     15  C   LIG    1       39.207  20.522 193.781  0.00  0.00    +0.041 C 
ATOM     16  C   LIG    1       40.306  19.789 194.600  0.00  0.00    +0.020 C 
ATOM     17  C   LIG    1       39.020  21.842 194.568  0.00  0.00    +0.020 C 
BRANCH  15  19
ATOM     18  C   LIG    1       37.976  18.311 193.128  0.00  0.00    +0.005 C 
ATOM     19  C   LIG    1       37.926  19.644 193.895  0.00  0.00    +0.012 C 
ENDBRANCH  15  19
ENDBRANCH   7  15
ENDBRANCH   1  11
BRANCH   4  20
ATOM     20  N   LIG    1       33.783  18.601 185.452  0.00  0.00    -0.280 N 
ATOM     21  H   LIG    1       34.176  17.858 184.863  0.00  0.00    +0.155 HD
ATOM     22  C   LIG    1       32.426  18.808 185.331  0.00  0.00    +0.248 C 
ATOM     23  O   LIG    1       31.862  19.515 186.155  0.00  0.00    -0.270 OA
BRANCH  22  24
ATOM     24  C   LIG    1       31.716  18.131 184.241  0.00  0.00    +0.037 A 
ATOM     25  C   LIG    1       32.388  17.709 183.076  0.00  0.00    +0.016 A 
ATOM     26  C   LIG    1       31.697  17.057 182.060  0.00  0.00    +0.039 A 
ATOM     27  C   LIG    1       30.334  16.836 182.211  0.00  0.00    +0.123 A 
ATOM     28  F   LIG    1       29.662  16.197 181.221  0.00  0.00    -0.205 F 
ATOM     29  C   LIG    1       29.637  17.249 183.337  0.00  0.00    +0.039 A 
ATOM     30  C   LIG    1       30.332  17.901 184.351  0.00  0.00    +0.016 A 
ENDBRANCH  22  24
ENDBRANCH   4  20
TORSDOF 5
