REMARK VINA RESULT:      -7.4      1.954      2.627
REMARK  Name = ZINC000049399659
REMARK                            x       y       z     vdW  Elec       q    Type
REMARK                         _______ _______ _______ _____ _____    ______ ____
ROOT
ATOM      1  C   LIG    1       23.813  46.034 183.486  0.00  0.00    +0.173 C 
ENDROOT
BRANCH   1   4
ATOM      2  N   LIG    1       22.045  47.718 183.189  0.00  0.00    -0.282 N 
ATOM      3  H   LIG    1       21.683  47.024 182.518  0.00  0.00    +0.155 HD
ATOM      4  C   LIG    1       23.262  47.418 183.750  0.00  0.00    +0.228 C 
ATOM      5  O   LIG    1       23.864  48.233 184.418  0.00  0.00    -0.275 OA
BRANCH   2   7
ATOM      6  C   LIG    1       20.221  48.864 184.252  0.00  0.00    +0.141 A 
ATOM      7  C   LIG    1       21.247  48.893 183.294  0.00  0.00    +0.077 A 
ATOM      8  C   LIG    1       21.454  50.038 182.523  0.00  0.00    +0.047 A 
ATOM      9  C   LIG    1       20.620  51.142 182.704  0.00  0.00    +0.043 A 
ATOM     10 CL   LIG    1       20.860  52.569 181.754  0.00  0.00    -0.083 Cl
ATOM     11  C   LIG    1       19.590  51.111 183.650  0.00  0.00    +0.024 A 
ATOM     12  C   LIG    1       19.391  49.972 184.427  0.00  0.00    +0.049 A 
BRANCH   6  14
ATOM     13  C   LIG    1       20.564  47.525 186.363  0.00  0.00    +0.277 C 
ATOM     14  O   LIG    1       20.062  47.707 185.018  0.00  0.00    -0.493 OA
ENDBRANCH   6  14
ENDBRANCH   2   7
ENDBRANCH   1   4
BRANCH   1  15
ATOM     15  S   LIG    1       22.453  44.857 183.842  0.00  0.00    -0.077 S 
BRANCH  15  16
ATOM     16  C   LIG    1       23.102  43.916 185.148  0.00  0.00    +0.190 A 
ATOM     17  N   LIG    1       22.729  44.236 186.388  0.00  0.00    -0.207 NA
ATOM     18  C   LIG    1       23.217  43.520 187.387  0.00  0.00    +0.126 A 
ATOM     19  C   LIG    1       24.092  42.464 187.155  0.00  0.00    +0.063 A 
ATOM     20  C   LIG    1       24.444  42.189 185.852  0.00  0.00    +0.117 A 
ATOM     21  N   LIG    1       23.953  42.914 184.856  0.00  0.00    -0.230 NA
BRANCH  18  22
ATOM     22  N   LIG    1       22.835  43.841 188.686  0.00  0.00    -0.315 N 
ATOM     23  C   LIG    1       23.918  43.906 189.685  0.00  0.00    +0.106 C 
ATOM     24  C   LIG    1       23.265  43.595 191.044  0.00  0.00    +0.019 C 
ATOM     25  C   LIG    1       22.192  44.665 191.310  0.00  0.00    +0.003 C 
ATOM     26  C   LIG    1       21.124  44.615 190.205  0.00  0.00    +0.019 C 
ATOM     27  C   LIG    1       21.809  44.895 188.854  0.00  0.00    +0.106 C 
ENDBRANCH  18  22
ENDBRANCH  15  16
ENDBRANCH   1  15
TORSDOF 6
