REMARK VINA RESULT:      -7.6     25.533     28.181
REMARK  Name = ZINC000006087399
REMARK                            x       y       z     vdW  Elec       q    Type
REMARK                         _______ _______ _______ _____ _____    ______ ____
ROOT
ATOM      1  C   LIG    1       19.675  40.483 209.965  0.00  0.00    +0.214 C 
ENDROOT
BRANCH   1   7
ATOM      2  C   LIG    1       17.107  35.717 210.739  0.00  0.00    +0.010 C 
ATOM      3  C   LIG    1       17.230  36.320 209.321  0.00  0.00    +0.018 C 
ATOM      4  C   LIG    1       17.058  37.876 209.313  0.00  0.00    +0.115 C 
ATOM      5  C   LIG    1       18.051  38.602 210.224  0.00  0.00    +0.247 C 
ATOM      6  O   LIG    1       18.191  38.561 211.434  0.00  0.00    -0.273 OA
ATOM      7  N   LIG    1       18.800  39.429 209.447  0.00  0.00    -0.215 N 
ATOM      8  C   LIG    1       18.408  39.344 208.142  0.00  0.00    +0.310 C 
ATOM      9  O   LIG    1       18.839  40.029 207.232  0.00  0.00    -0.252 OA
ATOM     10  N   LIG    1       17.462  38.396 208.010  0.00  0.00    -0.285 N 
ATOM     11  H   LIG    1       16.851  38.409 207.187  0.00  0.00    +0.151 HD
ATOM     12  C   LIG    1       15.609  38.334 209.627  0.00  0.00    +0.035 C 
ATOM     13  C   LIG    1       14.624  37.656 208.652  0.00  0.00    +0.003 C 
ATOM     14  C   LIG    1       14.748  36.128 208.685  0.00  0.00    +0.000 C 
ATOM     15  C   LIG    1       16.186  35.686 208.375  0.00  0.00    +0.006 C 
ENDBRANCH   1   7
BRANCH   1  16
ATOM     16  C   LIG    1       21.131  40.029 209.841  0.00  0.00    +0.238 C 
ATOM     17  N   LIG    1       21.843  39.804 211.005  0.00  0.00    -0.267 N 
ATOM     18  O   LIG    1       21.694  39.854 208.767  0.00  0.00    -0.274 OA
BRANCH  17  19
ATOM     19  C   LIG    1       21.255  39.970 212.280  0.00  0.00    +0.010 C 
ATOM     20  C   LIG    1       20.850  41.390 212.625  0.00  0.00    +0.051 C 
ATOM     21  C   LIG    1       20.673  41.467 214.158  0.00  0.00    +0.006 C 
ATOM     22  C   LIG    1       19.712  40.336 214.579  0.00  0.00    +0.004 C 
ATOM     23  C   LIG    1       20.468  38.992 214.463  0.00  0.00    +0.029 C 
ATOM     24  C   LIG    1       21.072  38.901 213.074  0.00  0.00    -0.008 C 
ENDBRANCH  17  19
BRANCH  17  25
ATOM     25  C   LIG    1       23.285  39.515 210.940  0.00  0.00    +0.187 C 
BRANCH  25  26
ATOM     26  C   LIG    1       23.980  40.786 211.386  0.00  0.00    +0.122 A 
ATOM     27  O   LIG    1       23.900  41.918 210.632  0.00  0.00    -0.466 OA
ATOM     28  C   LIG    1       24.623  42.878 211.265  0.00  0.00    +0.195 A 
ATOM     29  C   LIG    1       25.151  42.369 212.400  0.00  0.00    +0.041 A 
ATOM     30  C   LIG    1       24.741  41.034 212.477  0.00  0.00    +0.046 A 
ENDBRANCH  25  26
ENDBRANCH  17  25
ENDBRANCH   1  16
TORSDOF 5
