REMARK VINA RESULT:      -7.4     12.803     13.462
REMARK  Name = ZINC000006087320
REMARK                            x       y       z     vdW  Elec       q    Type
REMARK                         _______ _______ _______ _____ _____    ______ ____
ROOT
ATOM      1  C   LIG    1       27.964  31.802 203.977  0.00  0.00    +0.222 C 
ENDROOT
BRANCH   1   2
ATOM      2  N   LIG    1       27.113  32.587 203.050  0.00  0.00    -0.290 N 
ATOM      3  C   LIG    1       27.656  33.176 201.922  0.00  0.00    +0.262 A 
ATOM      4  O   LIG    1       28.868  33.033 201.734  0.00  0.00    -0.267 OA
ATOM      5  C   LIG    1       26.777  33.930 201.054  0.00  0.00    +0.068 A 
ATOM      6  C   LIG    1       27.239  34.536 199.876  0.00  0.00    +0.035 A 
ATOM      7  C   LIG    1       26.359  35.254 199.074  0.00  0.00    +0.043 A 
ATOM      8 CL   LIG    1       26.933  36.001 197.623  0.00  0.00    -0.083 Cl
ATOM      9  C   LIG    1       25.015  35.379 199.434  0.00  0.00    +0.042 A 
ATOM     10  C   LIG    1       24.554  34.781 200.600  0.00  0.00    +0.068 A 
ATOM     11 CL   LIG    1       22.876  34.957 201.015  0.00  0.00    -0.081 Cl
ATOM     12  C   LIG    1       25.432  34.048 201.428  0.00  0.00    +0.096 A 
ATOM     13  N   LIG    1       24.989  33.439 202.618  0.00  0.00    -0.235 NA
ATOM     14  C   LIG    1       25.778  32.769 203.368  0.00  0.00    +0.203 A 
ENDBRANCH   1   2
BRANCH   1  17
ATOM     15  N   LIG    1       28.120  29.426 204.610  0.00  0.00    -0.284 N 
ATOM     16  H   LIG    1       28.456  29.851 205.493  0.00  0.00    +0.155 HD
ATOM     17  C   LIG    1       27.782  30.332 203.635  0.00  0.00    +0.237 C 
ATOM     18  O   LIG    1       27.341  29.985 202.560  0.00  0.00    -0.274 OA
BRANCH  15  20
ATOM     19  C   LIG    1       26.926  27.351 204.969  0.00  0.00    -0.026 A 
ATOM     20  C   LIG    1       28.108  28.007 204.578  0.00  0.00    +0.037 A 
ATOM     21  C   LIG    1       29.220  27.275 204.149  0.00  0.00    +0.023 A 
ATOM     22  C   LIG    1       29.167  25.887 204.132  0.00  0.00    +0.002 A 
ATOM     23  C   LIG    1       28.009  25.228 204.533  0.00  0.00    +0.000 A 
ATOM     24  C   LIG    1       26.898  25.958 204.947  0.00  0.00    +0.005 A 
BRANCH  19  26
ATOM     25  C   LIG    1       24.480  27.208 205.077  0.00  0.00    +0.009 C 
ATOM     26  C   LIG    1       25.680  28.098 205.428  0.00  0.00    +0.033 C 
ENDBRANCH  19  26
ENDBRANCH  15  20
ENDBRANCH   1  17
TORSDOF 4
