MODEL 1
REMARK VINA RESULT:      -7.8      0.000      0.000
REMARK  Name = ZINC000000538650
REMARK                            x       y       z     vdW  Elec       q    Type
REMARK                         _______ _______ _______ _____ _____    ______ ____
ROOT
ATOM      1  C   LIG    1       18.586  38.716 210.619  0.00  0.00    +0.076 A 
ATOM      2  N   LIG    1       19.639  39.420 210.005  0.00  0.00    -0.213 N 
ATOM      3  N   LIG    1       19.744  39.782 208.691  0.00  0.00    -0.172 NA
ATOM      4  C   LIG    1       20.881  40.419 208.611  0.00  0.00    +0.148 A 
ATOM      5  C   LIG    1       21.546  40.482 209.834  0.00  0.00    +0.087 A 
ATOM      6  C   LIG    1       20.733  39.839 210.737  0.00  0.00    +0.167 A 
ATOM      7  N   LIG    1       20.828  39.609 212.103  0.00  0.00    -0.235 NA
ATOM      8  C   LIG    1       19.866  38.968 212.690  0.00  0.00    +0.115 A 
ATOM      9  C   LIG    1       18.730  38.501 211.973  0.00  0.00    +0.048 A 
ENDROOT
BRANCH   1  12
ATOM     10  C   LIG    1       16.285  36.572 208.539  0.00  0.00    +0.037 A 
ATOM     11  C   LIG    1       17.359  36.953 209.344  0.00  0.00    +0.033 A 
ATOM     12  C   LIG    1       17.455  38.268 209.813  0.00  0.00    +0.002 A 
ATOM     13  C   LIG    1       16.449  39.184 209.465  0.00  0.00    +0.010 A 
ATOM     14  C   LIG    1       15.376  38.796 208.668  0.00  0.00    +0.002 A 
ATOM     15  C   LIG    1       15.290  37.490 208.198  0.00  0.00    +0.023 A 
BRANCH  10  18
ATOM     16  C   LIG    1       15.520  32.832 208.176  0.00  0.00    +0.109 C 
ATOM     17  C   LIG    1       15.515  34.244 208.712  0.00  0.00    +0.216 C 
ATOM     18  N   LIG    1       16.224  35.238 208.044  0.00  0.00    -0.275 N 
ATOM     19  C   LIG    1       16.988  34.938 206.819  0.00  0.00    +0.138 C 
ATOM     20  O   LIG    1       14.897  34.509 209.722  0.00  0.00    -0.276 OA
ENDBRANCH  10  18
ENDBRANCH   1  12
BRANCH   5  21
ATOM     21  C   LIG    1       22.813  41.145 210.040  0.00  0.00    +0.205 C 
ATOM     22  O   LIG    1       23.648  40.574 210.742  0.00  0.00    -0.286 OA
BRANCH  21  23
ATOM     23  C   LIG    1       23.138  42.458 209.503  0.00  0.00    +0.060 A 
ATOM     24  S   LIG    1       22.198  43.856 209.937  0.00  0.00    -0.093 S 
ATOM     25  C   LIG    1       23.157  44.874 208.932  0.00  0.00    +0.046 A 
ATOM     26  C   LIG    1       24.143  44.173 208.294  0.00  0.00    +0.008 A 
ATOM     27  C   LIG    1       24.132  42.810 208.610  0.00  0.00    +0.019 A 
ENDBRANCH  21  23
ENDBRANCH   5  21
TORSDOF 4
ENDMDL
MODEL 2
REMARK VINA RESULT:      -7.6      1.811      2.606
REMARK  Name = ZINC000000538650
REMARK                            x       y       z     vdW  Elec       q    Type
REMARK                         _______ _______ _______ _____ _____    ______ ____
ROOT
ATOM      1  C   LIG    1       18.128  38.954 208.975  0.00  0.00    +0.076 A 
ATOM      2  N   LIG    1       18.934  38.851 210.126  0.00  0.00    -0.213 N 
ATOM      3  N   LIG    1       18.679  38.128 211.258  0.00  0.00    -0.172 NA
ATOM      4  C   LIG    1       19.714  38.339 212.026  0.00  0.00    +0.148 A 
ATOM      5  C   LIG    1       20.648  39.193 211.443  0.00  0.00    +0.087 A 
ATOM      6  C   LIG    1       20.141  39.517 210.207  0.00  0.00    +0.167 A 
ATOM      7  N   LIG    1       20.621  40.289 209.157  0.00  0.00    -0.235 NA
ATOM      8  C   LIG    1       19.898  40.393 208.086  0.00  0.00    +0.115 A 
ATOM      9  C   LIG    1       18.640  39.740 207.965  0.00  0.00    +0.048 A 
ENDROOT
BRANCH   1  12
ATOM     10  C   LIG    1       15.530  36.224 208.892  0.00  0.00    +0.037 A 
ATOM     11  C   LIG    1       16.768  36.859 208.982  0.00  0.00    +0.033 A 
ATOM     12  C   LIG    1       16.848  38.256 208.930  0.00  0.00    +0.002 A 
ATOM     13  C   LIG    1       15.662  38.995 208.797  0.00  0.00    +0.010 A 
ATOM     14  C   LIG    1       14.428  38.355 208.715  0.00  0.00    +0.002 A 
ATOM     15  C   LIG    1       14.355  36.968 208.759  0.00  0.00    +0.023 A 
BRANCH  10  18
ATOM     16  C   LIG    1       15.468  32.544 207.813  0.00  0.00    +0.109 C 
ATOM     17  C   LIG    1       15.584  34.049 207.748  0.00  0.00    +0.216 C 
ATOM     18  N   LIG    1       15.473  34.801 208.914  0.00  0.00    -0.275 N 
ATOM     19  C   LIG    1       15.238  34.155 210.219  0.00  0.00    +0.138 C 
ATOM     20  O   LIG    1       15.771  34.599 206.683  0.00  0.00    -0.276 OA
ENDBRANCH  10  18
ENDBRANCH   1  12
BRANCH   5  21
ATOM     21  C   LIG    1       21.895  39.581 212.060  0.00  0.00    +0.205 C 
ATOM     22  O   LIG    1       22.367  38.831 212.915  0.00  0.00    -0.286 OA
BRANCH  21  23
ATOM     23  C   LIG    1       22.598  40.820 211.759  0.00  0.00    +0.060 A 
ATOM     24  S   LIG    1       21.942  42.357 212.244  0.00  0.00    -0.093 S 
ATOM     25  C   LIG    1       23.265  43.200 211.533  0.00  0.00    +0.046 A 
ATOM     26  C   LIG    1       24.158  42.345 210.949  0.00  0.00    +0.008 A 
ATOM     27  C   LIG    1       23.783  41.002 211.072  0.00  0.00    +0.019 A 
ENDBRANCH  21  23
ENDBRANCH   5  21
TORSDOF 4
ENDMDL
MODEL 3
REMARK VINA RESULT:      -7.6     30.515     32.476
REMARK  Name = ZINC000000538650
REMARK                            x       y       z     vdW  Elec       q    Type
REMARK                         _______ _______ _______ _____ _____    ______ ____
ROOT
ATOM      1  C   LIG    1       36.251  19.172 188.609  0.00  0.00    +0.076 A 
ATOM      2  N   LIG    1       36.424  19.940 189.777  0.00  0.00    -0.213 N 
ATOM      3  N   LIG    1       35.806  21.116 190.099  0.00  0.00    -0.172 NA
ATOM      4  C   LIG    1       36.281  21.430 191.275  0.00  0.00    +0.148 A 
ATOM      5  C   LIG    1       37.209  20.501 191.742  0.00  0.00    +0.087 A 
ATOM      6  C   LIG    1       37.293  19.532 190.770  0.00  0.00    +0.167 A 
ATOM      7  N   LIG    1       38.008  18.346 190.673  0.00  0.00    -0.235 NA
ATOM      8  C   LIG    1       37.860  17.621 189.608  0.00  0.00    +0.115 A 
ATOM      9  C   LIG    1       36.990  18.011 188.552  0.00  0.00    +0.048 A 
ENDROOT
BRANCH   1  12
ATOM     10  C   LIG    1       33.452  19.322 186.087  0.00  0.00    +0.037 A 
ATOM     11  C   LIG    1       34.275  18.857 187.113  0.00  0.00    +0.033 A 
ATOM     12  C   LIG    1       35.342  19.642 187.569  0.00  0.00    +0.002 A 
ATOM     13  C   LIG    1       35.554  20.899 186.981  0.00  0.00    +0.010 A 
ATOM     14  C   LIG    1       34.725  21.360 185.963  0.00  0.00    +0.002 A 
ATOM     15  C   LIG    1       33.673  20.573 185.508  0.00  0.00    +0.023 A 
BRANCH  10  18
ATOM     16  C   LIG    1       30.084  17.520 185.748  0.00  0.00    +0.109 C 
ATOM     17  C   LIG    1       31.160  18.450 186.256  0.00  0.00    +0.216 C 
ATOM     18  N   LIG    1       32.394  18.495 185.615  0.00  0.00    -0.275 N 
ATOM     19  C   LIG    1       32.676  17.643 184.444  0.00  0.00    +0.138 C 
ATOM     20  O   LIG    1       30.949  19.154 187.222  0.00  0.00    -0.276 OA
ENDBRANCH  10  18
ENDBRANCH   1  12
BRANCH   5  21
ATOM     21  C   LIG    1       37.876  20.587 193.021  0.00  0.00    +0.205 C 
ATOM     22  O   LIG    1       37.679  19.680 193.829  0.00  0.00    -0.286 OA
BRANCH  21  23
ATOM     23  C   LIG    1       38.728  21.699 193.418  0.00  0.00    +0.060 A 
ATOM     24  S   LIG    1       39.659  22.574 192.237  0.00  0.00    -0.093 S 
ATOM     25  C   LIG    1       40.330  23.594 193.452  0.00  0.00    +0.046 A 
ATOM     26  C   LIG    1       39.866  23.273 194.698  0.00  0.00    +0.008 A 
ATOM     27  C   LIG    1       38.966  22.202 194.682  0.00  0.00    +0.019 A 
ENDBRANCH  21  23
ENDBRANCH   5  21
TORSDOF 4
ENDMDL
MODEL 4
REMARK VINA RESULT:      -7.5     15.944     17.814
REMARK  Name = ZINC000000538650
REMARK                            x       y       z     vdW  Elec       q    Type
REMARK                         _______ _______ _______ _____ _____    ______ ____
ROOT
ATOM      1  C   LIG    1       27.592  25.703 211.215  0.00  0.00    +0.076 A 
ATOM      2  N   LIG    1       27.612  24.681 210.245  0.00  0.00    -0.213 N 
ATOM      3  N   LIG    1       27.153  23.400 210.375  0.00  0.00    -0.172 NA
ATOM      4  C   LIG    1       27.380  22.847 209.214  0.00  0.00    +0.148 A 
ATOM      5  C   LIG    1       27.989  23.720 208.315  0.00  0.00    +0.087 A 
ATOM      6  C   LIG    1       28.130  24.912 208.986  0.00  0.00    +0.167 A 
ATOM      7  N   LIG    1       28.626  26.155 208.616  0.00  0.00    -0.235 NA
ATOM      8  C   LIG    1       28.611  27.111 209.492  0.00  0.00    +0.115 A 
ATOM      9  C   LIG    1       28.105  26.914 210.806  0.00  0.00    +0.048 A 
ENDROOT
BRANCH   1  12
ATOM     10  C   LIG    1       27.349  24.936 214.898  0.00  0.00    +0.037 A 
ATOM     11  C   LIG    1       27.894  25.247 213.653  0.00  0.00    +0.033 A 
ATOM     12  C   LIG    1       27.058  25.421 212.543  0.00  0.00    +0.002 A 
ATOM     13  C   LIG    1       25.671  25.285 212.715  0.00  0.00    +0.010 A 
ATOM     14  C   LIG    1       25.133  24.981 213.963  0.00  0.00    +0.002 A 
ATOM     15  C   LIG    1       25.968  24.802 215.059  0.00  0.00    +0.023 A 
BRANCH  10  18
ATOM     16  C   LIG    1       29.520  25.511 218.007  0.00  0.00    +0.109 C 
ATOM     17  C   LIG    1       28.554  25.766 216.874  0.00  0.00    +0.216 C 
ATOM     18  N   LIG    1       28.219  24.730 216.007  0.00  0.00    -0.275 N 
ATOM     19  C   LIG    1       28.794  23.382 216.170  0.00  0.00    +0.138 C 
ATOM     20  O   LIG    1       28.074  26.869 216.720  0.00  0.00    -0.276 OA
ENDBRANCH  10  18
ENDBRANCH   1  12
BRANCH   5  21
ATOM     21  C   LIG    1       28.333  23.379 206.954  0.00  0.00    +0.205 C 
ATOM     22  O   LIG    1       28.269  22.194 206.628  0.00  0.00    -0.286 OA
BRANCH  21  23
ATOM     23  C   LIG    1       28.787  24.348 205.966  0.00  0.00    +0.060 A 
ATOM     24  S   LIG    1       27.645  25.249 205.013  0.00  0.00    -0.093 S 
ATOM     25  C   LIG    1       28.912  26.055 204.169  0.00  0.00    +0.046 A 
ATOM     26  C   LIG    1       30.146  25.646 204.595  0.00  0.00    +0.008 A 
ATOM     27  C   LIG    1       30.078  24.681 205.606  0.00  0.00    +0.019 A 
ENDBRANCH  21  23
ENDBRANCH   5  21
TORSDOF 4
ENDMDL
MODEL 5
REMARK VINA RESULT:      -7.4     15.976     18.520
REMARK  Name = ZINC000000538650
REMARK                            x       y       z     vdW  Elec       q    Type
REMARK                         _______ _______ _______ _____ _____    ______ ____
ROOT
ATOM      1  C   LIG    1       28.455  23.852 207.737  0.00  0.00    +0.076 A 
ATOM      2  N   LIG    1       28.166  24.325 206.442  0.00  0.00    -0.213 N 
ATOM      3  N   LIG    1       27.845  25.602 206.074  0.00  0.00    -0.172 NA
ATOM      4  C   LIG    1       27.680  25.544 204.780  0.00  0.00    +0.148 A 
ATOM      5  C   LIG    1       27.871  24.260 204.274  0.00  0.00    +0.087 A 
ATOM      6  C   LIG    1       28.194  23.474 205.355  0.00  0.00    +0.167 A 
ATOM      7  N   LIG    1       28.529  22.132 205.486  0.00  0.00    -0.235 NA
ATOM      8  C   LIG    1       28.804  21.678 206.669  0.00  0.00    +0.115 A 
ATOM      9  C   LIG    1       28.770  22.514 207.820  0.00  0.00    +0.048 A 
ENDROOT
BRANCH   1  12
ATOM     10  C   LIG    1       27.374  25.573 210.913  0.00  0.00    +0.037 A 
ATOM     11  C   LIG    1       27.427  24.648 209.870  0.00  0.00    +0.033 A 
ATOM     12  C   LIG    1       28.396  24.773 208.867  0.00  0.00    +0.002 A 
ATOM     13  C   LIG    1       29.310  25.836 208.941  0.00  0.00    +0.010 A 
ATOM     14  C   LIG    1       29.256  26.752 209.988  0.00  0.00    +0.002 A 
ATOM     15  C   LIG    1       28.287  26.628 210.977  0.00  0.00    +0.023 A 
BRANCH  10  18
ATOM     16  C   LIG    1       25.534  24.844 214.198  0.00  0.00    +0.109 C 
ATOM     17  C   LIG    1       26.650  25.010 213.194  0.00  0.00    +0.216 C 
ATOM     18  N   LIG    1       26.360  25.448 211.905  0.00  0.00    -0.275 N 
ATOM     19  C   LIG    1       24.976  25.752 211.496  0.00  0.00    +0.138 C 
ATOM     20  O   LIG    1       27.795  24.759 213.509  0.00  0.00    -0.276 OA
ENDBRANCH  10  18
ENDBRANCH   1  12
BRANCH   5  21
ATOM     21  C   LIG    1       27.773  23.911 202.875  0.00  0.00    +0.205 C 
ATOM     22  O   LIG    1       28.643  24.341 202.118  0.00  0.00    -0.286 OA
BRANCH  21  23
ATOM     23  C   LIG    1       26.688  23.121 202.310  0.00  0.00    +0.060 A 
ATOM     24  S   LIG    1       26.878  22.311 200.783  0.00  0.00    -0.093 S 
ATOM     25  C   LIG    1       25.269  21.701 200.851  0.00  0.00    +0.046 A 
ATOM     26  C   LIG    1       24.621  22.105 201.986  0.00  0.00    +0.008 A 
ATOM     27  C   LIG    1       25.417  22.909 202.809  0.00  0.00    +0.019 A 
ENDBRANCH  21  23
ENDBRANCH   5  21
TORSDOF 4
ENDMDL
MODEL 6
REMARK VINA RESULT:      -7.3      3.925      6.569
REMARK  Name = ZINC000000538650
REMARK                            x       y       z     vdW  Elec       q    Type
REMARK                         _______ _______ _______ _____ _____    ______ ____
ROOT
ATOM      1  C   LIG    1       22.200  43.653 210.171  0.00  0.00    +0.076 A 
ATOM      2  N   LIG    1       23.202  44.325 209.445  0.00  0.00    -0.213 N 
ATOM      3  N   LIG    1       24.106  43.781 208.576  0.00  0.00    -0.172 NA
ATOM      4  C   LIG    1       24.810  44.796 208.151  0.00  0.00    +0.148 A 
ATOM      5  C   LIG    1       24.409  46.002 208.721  0.00  0.00    +0.087 A 
ATOM      6  C   LIG    1       23.359  45.692 209.554  0.00  0.00    +0.167 A 
ATOM      7  N   LIG    1       22.528  46.461 210.358  0.00  0.00    -0.235 NA
ATOM      8  C   LIG    1       21.595  45.864 211.031  0.00  0.00    +0.115 A 
ATOM      9  C   LIG    1       21.408  44.455 210.964  0.00  0.00    +0.048 A 
ENDROOT
BRANCH   1  12
ATOM     10  C   LIG    1       20.748  40.199 209.752  0.00  0.00    +0.037 A 
ATOM     11  C   LIG    1       20.837  41.589 209.820  0.00  0.00    +0.033 A 
ATOM     12  C   LIG    1       22.073  42.205 210.050  0.00  0.00    +0.002 A 
ATOM     13  C   LIG    1       23.212  41.397 210.199  0.00  0.00    +0.010 A 
ATOM     14  C   LIG    1       23.118  40.010 210.123  0.00  0.00    +0.002 A 
ATOM     15  C   LIG    1       21.886  39.404 209.903  0.00  0.00    +0.023 A 
BRANCH  10  18
ATOM     16  C   LIG    1       17.358  39.205 208.260  0.00  0.00    +0.109 C 
ATOM     17  C   LIG    1       18.724  39.833 208.406  0.00  0.00    +0.216 C 
ATOM     18  N   LIG    1       19.476  39.591 209.552  0.00  0.00    -0.275 N 
ATOM     19  C   LIG    1       18.961  38.732 210.635  0.00  0.00    +0.138 C 
ATOM     20  O   LIG    1       19.162  40.547 207.528  0.00  0.00    -0.276 OA
ENDBRANCH  10  18
ENDBRANCH   1  12
BRANCH   5  21
ATOM     21  C   LIG    1       24.998  47.285 208.416  0.00  0.00    +0.205 C 
ATOM     22  O   LIG    1       24.971  47.661 207.244  0.00  0.00    -0.286 OA
BRANCH  21  23
ATOM     23  C   LIG    1       25.655  48.131 209.402  0.00  0.00    +0.060 A 
ATOM     24  S   LIG    1       26.392  47.441 210.819  0.00  0.00    -0.093 S 
ATOM     25  C   LIG    1       26.856  48.997 211.394  0.00  0.00    +0.046 A 
ATOM     26  C   LIG    1       26.459  49.992 210.544  0.00  0.00    +0.008 A 
ATOM     27  C   LIG    1       25.778  49.507 209.422  0.00  0.00    +0.019 A 
ENDBRANCH  21  23
ENDBRANCH   5  21
TORSDOF 4
ENDMDL
MODEL 7
REMARK VINA RESULT:      -7.2      5.263     10.847
REMARK  Name = ZINC000000538650
REMARK                            x       y       z     vdW  Elec       q    Type
REMARK                         _______ _______ _______ _____ _____    ______ ____
ROOT
ATOM      1  C   LIG    1       26.070  44.092 210.239  0.00  0.00    +0.076 A 
ATOM      2  N   LIG    1       24.992  43.297 210.674  0.00  0.00    -0.213 N 
ATOM      3  N   LIG    1       23.660  43.507 210.450  0.00  0.00    -0.172 NA
ATOM      4  C   LIG    1       23.062  42.504 211.036  0.00  0.00    +0.148 A 
ATOM      5  C   LIG    1       23.959  41.635 211.656  0.00  0.00    +0.087 A 
ATOM      6  C   LIG    1       25.210  42.150 211.411  0.00  0.00    +0.167 A 
ATOM      7  N   LIG    1       26.492  41.720 211.731  0.00  0.00    -0.235 NA
ATOM      8  C   LIG    1       27.499  42.435 211.335  0.00  0.00    +0.115 A 
ATOM      9  C   LIG    1       27.321  43.633 210.590  0.00  0.00    +0.048 A 
ENDROOT
BRANCH   1  12
ATOM     10  C   LIG    1       25.464  47.704 209.344  0.00  0.00    +0.037 A 
ATOM     11  C   LIG    1       25.764  46.567 210.094  0.00  0.00    +0.033 A 
ATOM     12  C   LIG    1       25.804  45.309 209.480  0.00  0.00    +0.002 A 
ATOM     13  C   LIG    1       25.546  45.223 208.103  0.00  0.00    +0.010 A 
ATOM     14  C   LIG    1       25.254  46.362 207.358  0.00  0.00    +0.002 A 
ATOM     15  C   LIG    1       25.208  47.607 207.975  0.00  0.00    +0.023 A 
BRANCH  10  18
ATOM     16  C   LIG    1       24.218  50.737 211.334  0.00  0.00    +0.109 C 
ATOM     17  C   LIG    1       24.264  49.365 210.704  0.00  0.00    +0.216 C 
ATOM     18  N   LIG    1       25.395  48.969 209.994  0.00  0.00    -0.275 N 
ATOM     19  C   LIG    1       26.553  49.869 209.841  0.00  0.00    +0.138 C 
ATOM     20  O   LIG    1       23.319  48.612 210.814  0.00  0.00    -0.276 OA
ENDBRANCH  10  18
ENDBRANCH   1  12
BRANCH   5  21
ATOM     21  C   LIG    1       23.576  40.433 212.359  0.00  0.00    +0.205 C 
ATOM     22  O   LIG    1       24.400  39.932 213.124  0.00  0.00    -0.286 OA
BRANCH  21  23
ATOM     23  C   LIG    1       22.295  39.763 212.182  0.00  0.00    +0.060 A 
ATOM     24  S   LIG    1       21.026  39.943 213.358  0.00  0.00    -0.093 S 
ATOM     25  C   LIG    1       19.987  38.897 212.467  0.00  0.00    +0.046 A 
ATOM     26  C   LIG    1       20.588  38.431 211.331  0.00  0.00    +0.008 A 
ATOM     27  C   LIG    1       21.892  38.915 211.169  0.00  0.00    +0.019 A 
ENDBRANCH  21  23
ENDBRANCH   5  21
TORSDOF 4
ENDMDL
MODEL 8
REMARK VINA RESULT:      -7.2     30.853     33.020
REMARK  Name = ZINC000000538650
REMARK                            x       y       z     vdW  Elec       q    Type
REMARK                         _______ _______ _______ _____ _____    ______ ____
ROOT
ATOM      1  C   LIG    1       36.099  18.767 188.414  0.00  0.00    +0.076 A 
ATOM      2  N   LIG    1       36.517  19.518 189.529  0.00  0.00    -0.213 N 
ATOM      3  N   LIG    1       36.176  20.804 189.842  0.00  0.00    -0.172 NA
ATOM      4  C   LIG    1       36.799  21.050 190.963  0.00  0.00    +0.148 A 
ATOM      5  C   LIG    1       37.558  19.968 191.402  0.00  0.00    +0.087 A 
ATOM      6  C   LIG    1       37.366  18.973 190.472  0.00  0.00    +0.167 A 
ATOM      7  N   LIG    1       37.819  17.663 190.377  0.00  0.00    -0.235 NA
ATOM      8  C   LIG    1       37.441  16.952 189.361  0.00  0.00    +0.115 A 
ATOM      9  C   LIG    1       36.583  17.478 188.356  0.00  0.00    +0.048 A 
ENDROOT
BRANCH   1  12
ATOM     10  C   LIG    1       33.213  19.380 186.067  0.00  0.00    +0.037 A 
ATOM     11  C   LIG    1       34.007  18.787 187.048  0.00  0.00    +0.033 A 
ATOM     12  C   LIG    1       35.219  19.379 187.425  0.00  0.00    +0.002 A 
ATOM     13  C   LIG    1       35.605  20.578 186.804  0.00  0.00    +0.010 A 
ATOM     14  C   LIG    1       34.804  21.168 185.831  0.00  0.00    +0.002 A 
ATOM     15  C   LIG    1       33.606  20.572 185.455  0.00  0.00    +0.023 A 
BRANCH  10  18
ATOM     16  C   LIG    1       30.529  17.557 184.022  0.00  0.00    +0.109 C 
ATOM     17  C   LIG    1       31.850  18.177 184.412  0.00  0.00    +0.216 C 
ATOM     18  N   LIG    1       32.001  18.744 185.674  0.00  0.00    -0.275 N 
ATOM     19  C   LIG    1       30.888  18.757 186.642  0.00  0.00    +0.138 C 
ATOM     20  O   LIG    1       32.775  18.181 183.627  0.00  0.00    -0.276 OA
ENDBRANCH  10  18
ENDBRANCH   1  12
BRANCH   5  21
ATOM     21  C   LIG    1       38.332  19.955 192.622  0.00  0.00    +0.205 C 
ATOM     22  O   LIG    1       39.528  20.236 192.542  0.00  0.00    -0.286 OA
BRANCH  21  23
ATOM     23  C   LIG    1       37.789  19.590 193.923  0.00  0.00    +0.060 A 
ATOM     24  S   LIG    1       36.225  18.842 194.057  0.00  0.00    -0.093 S 
ATOM     25  C   LIG    1       36.345  18.786 195.774  0.00  0.00    +0.046 A 
ATOM     26  C   LIG    1       37.523  19.320 196.218  0.00  0.00    +0.008 A 
ATOM     27  C   LIG    1       38.338  19.778 195.176  0.00  0.00    +0.019 A 
ENDBRANCH  21  23
ENDBRANCH   5  21
TORSDOF 4
ENDMDL
MODEL 9
REMARK VINA RESULT:      -7.2      3.117      8.765
REMARK  Name = ZINC000000538650
REMARK                            x       y       z     vdW  Elec       q    Type
REMARK                         _______ _______ _______ _____ _____    ______ ____
ROOT
ATOM      1  C   LIG    1       21.090  41.141 210.796  0.00  0.00    +0.076 A 
ATOM      2  N   LIG    1       19.984  40.632 210.087  0.00  0.00    -0.213 N 
ATOM      3  N   LIG    1       19.191  41.296 209.193  0.00  0.00    -0.172 NA
ATOM      4  C   LIG    1       18.318  40.408 208.799  0.00  0.00    +0.148 A 
ATOM      5  C   LIG    1       18.499  39.171 209.415  0.00  0.00    +0.087 A 
ATOM      6  C   LIG    1       19.586  39.319 210.244  0.00  0.00    +0.167 A 
ATOM      7  N   LIG    1       20.267  38.444 211.080  0.00  0.00    -0.235 NA
ATOM      8  C   LIG    1       21.291  38.891 211.738  0.00  0.00    +0.115 A 
ATOM      9  C   LIG    1       21.726  40.240 211.622  0.00  0.00    +0.048 A 
ENDROOT
BRANCH   1  12
ATOM     10  C   LIG    1       22.933  44.255 209.737  0.00  0.00    +0.037 A 
ATOM     11  C   LIG    1       22.572  42.912 209.844  0.00  0.00    +0.033 A 
ATOM     12  C   LIG    1       21.471  42.538 210.624  0.00  0.00    +0.002 A 
ATOM     13  C   LIG    1       20.740  43.541 211.282  0.00  0.00    +0.010 A 
ATOM     14  C   LIG    1       21.101  44.880 211.166  0.00  0.00    +0.002 A 
ATOM     15  C   LIG    1       22.200  45.244 210.396  0.00  0.00    +0.023 A 
BRANCH  10  18
ATOM     16  C   LIG    1       25.234  45.866 207.126  0.00  0.00    +0.109 C 
ATOM     17  C   LIG    1       24.006  45.558 207.950  0.00  0.00    +0.216 C 
ATOM     18  N   LIG    1       24.077  44.610 208.967  0.00  0.00    -0.275 N 
ATOM     19  C   LIG    1       25.332  43.892 209.254  0.00  0.00    +0.138 C 
ATOM     20  O   LIG    1       22.962  46.134 207.725  0.00  0.00    -0.276 OA
ENDBRANCH  10  18
ENDBRANCH   1  12
BRANCH   5  21
ATOM     21  C   LIG    1       17.691  38.003 209.151  0.00  0.00    +0.205 C 
ATOM     22  O   LIG    1       17.422  37.748 207.977  0.00  0.00    -0.286 OA
BRANCH  21  23
ATOM     23  C   LIG    1       17.147  37.141 210.192  0.00  0.00    +0.060 A 
ATOM     24  S   LIG    1       16.325  37.816 211.567  0.00  0.00    -0.093 S 
ATOM     25  C   LIG    1       16.063  36.252 212.240  0.00  0.00    +0.046 A 
ATOM     26  C   LIG    1       16.586  35.266 211.449  0.00  0.00    +0.008 A 
ATOM     27  C   LIG    1       17.202  35.765 210.296  0.00  0.00    +0.019 A 
ENDBRANCH  21  23
ENDBRANCH   5  21
TORSDOF 4
ENDMDL
