REMARK VINA RESULT:      -8.0     29.331     32.854
REMARK  Name = ZINC000049420917
REMARK                            x       y       z     vdW  Elec       q    Type
REMARK                         _______ _______ _______ _____ _____    ______ ____
ROOT
ATOM      1  N   LIG    1       25.695  44.668 181.084  0.00  0.00    -0.205 N 
ATOM      2  C   LIG    1       25.194  43.629 180.263  0.00  0.00    +0.160 A 
ATOM      3  N   LIG    1       26.013  43.130 179.325  0.00  0.00    -0.238 NA
ATOM      4  C   LIG    1       25.573  42.158 178.527  0.00  0.00    +0.113 A 
ATOM      5  C   LIG    1       24.286  41.637 178.646  0.00  0.00    +0.022 A 
ATOM      6  C   LIG    1       23.429  42.139 179.618  0.00  0.00    +0.034 A 
ATOM      7  C   LIG    1       23.897  43.162 180.433  0.00  0.00    +0.149 A 
ATOM      8  S   LIG    1       23.011  43.895 181.767  0.00  0.00    +0.082 S 
ATOM      9  O   LIG    1       22.474  45.134 181.350  0.00  0.00    -0.150 OA
ATOM     10  O   LIG    1       22.097  42.948 182.293  0.00  0.00    -0.150 OA
ATOM     11  N   LIG    1       24.190  44.176 182.870  0.00  0.00    -0.150 N 
ATOM     12  C   LIG    1       25.169  44.965 182.351  0.00  0.00    +0.334 C 
ATOM     13  O   LIG    1       25.595  45.919 182.995  0.00  0.00    -0.250 OA
ENDROOT
BRANCH   1  18
ATOM     14  C   LIG    1       29.934  47.951 179.115  0.00  0.00    +0.044 C 
ATOM     15  C   LIG    1       28.811  47.086 179.645  0.00  0.00    -0.050 A 
ATOM     16  C   LIG    1       27.486  47.380 179.319  0.00  0.00    +0.005 A 
ATOM     17  C   LIG    1       26.449  46.582 179.793  0.00  0.00    +0.024 A 
ATOM     18  C   LIG    1       26.751  45.483 180.596  0.00  0.00    +0.044 A 
ATOM     19  C   LIG    1       28.069  45.173 180.926  0.00  0.00    +0.024 A 
ATOM     20  C   LIG    1       29.097  45.978 180.447  0.00  0.00    +0.005 A 
ENDBRANCH   1  18
BRANCH  11  21
ATOM     21  C   LIG    1       23.685  44.451 184.214  0.00  0.00    +0.171 C 
BRANCH  21  22
ATOM     22  C   LIG    1       24.199  43.285 185.034  0.00  0.00    -0.028 A 
ATOM     23  C   LIG    1       23.504  42.877 186.178  0.00  0.00    +0.008 A 
ATOM     24  C   LIG    1       23.967  41.803 186.934  0.00  0.00    +0.038 A 
ATOM     25  C   LIG    1       25.122  41.149 186.527  0.00  0.00    +0.123 A 
ATOM     26  F   LIG    1       25.576  40.104 187.259  0.00  0.00    -0.205 F 
ATOM     27  C   LIG    1       25.826  41.529 185.393  0.00  0.00    +0.038 A 
ATOM     28  C   LIG    1       25.357  42.605 184.643  0.00  0.00    +0.008 A 
ENDBRANCH  21  22
ENDBRANCH  11  21
TORSDOF 3
