REMARK VINA RESULT:      -7.8     34.128     36.000
REMARK  Name = ZINC000000607845
REMARK                            x       y       z     vdW  Elec       q    Type
REMARK                         _______ _______ _______ _____ _____    ______ ____
ROOT
ATOM      1  C   LIG    1       23.018  40.002 210.915  0.00  0.00    -0.021 A 
ATOM      2  C   LIG    1       23.689  41.157 210.449  0.00  0.00    +0.003 A 
ATOM      3  C   LIG    1       23.615  41.912 209.265  0.00  0.00    +0.014 A 
ATOM      4  C   LIG    1       24.412  43.039 209.117  0.00  0.00    -0.045 A 
ATOM      5  C   LIG    1       25.306  43.420 210.149  0.00  0.00    +0.006 A 
ATOM      6  C   LIG    1       25.398  42.680 211.316  0.00  0.00    +0.026 A 
ATOM      7  C   LIG    1       24.577  41.553 211.440  0.00  0.00    +0.047 A 
ATOM      8  N   LIG    1       24.456  40.650 212.479  0.00  0.00    -0.360 N 
ATOM      9  H   LIG    1       24.996  40.681 213.359  0.00  0.00    +0.165 HD
ATOM     10  C   LIG    1       23.504  39.710 212.151  0.00  0.00    +0.087 A 
ENDROOT
BRANCH   1  11
ATOM     11  C   LIG    1       21.942  39.228 210.176  0.00  0.00    +0.056 C 
BRANCH  11  14
ATOM     12  C   LIG    1       19.929  40.475 208.564  0.00  0.00    +0.105 C 
ATOM     13  N   LIG    1       19.511  39.940 209.873  0.00  0.00    -0.302 NA
ATOM     14  C   LIG    1       20.582  39.569 210.843  0.00  0.00    +0.061 C 
ATOM     15  C   LIG    1       20.029  38.306 211.541  0.00  0.00    +0.020 C 
ATOM     16  C   LIG    1       18.543  38.333 211.188  0.00  0.00    +0.017 C 
ATOM     17  C   LIG    1       18.584  38.823 209.744  0.00  0.00    +0.084 C 
ENDBRANCH  11  14
ENDBRANCH   1  11
BRANCH   4  18
ATOM     18  C   LIG    1       24.308  43.878 207.861  0.00  0.00    +0.058 C 
BRANCH  18  19
ATOM     19  C   LIG    1       25.319  45.023 208.039  0.00  0.00    +0.176 C 
BRANCH  19  20
ATOM     20  S   LIG    1       24.643  46.665 207.962  0.00  0.00    -0.003 S 
ATOM     21  O   LIG    1       23.269  46.567 207.601  0.00  0.00    -0.169 OA
ATOM     22  O   LIG    1       25.479  47.453 207.121  0.00  0.00    -0.169 OA
BRANCH  20  23
ATOM     23  C   LIG    1       24.771  47.260 209.657  0.00  0.00    +0.088 A 
ATOM     24  C   LIG    1       25.735  48.210 210.005  0.00  0.00    +0.027 A 
ATOM     25  C   LIG    1       25.836  48.671 211.314  0.00  0.00    +0.002 A 
ATOM     26  C   LIG    1       24.978  48.180 212.293  0.00  0.00    +0.000 A 
ATOM     27  C   LIG    1       24.024  47.225 211.962  0.00  0.00    +0.002 A 
ATOM     28  C   LIG    1       23.924  46.765 210.652  0.00  0.00    +0.027 A 
ENDBRANCH  20  23
ENDBRANCH  19  20
ENDBRANCH  18  19
ENDBRANCH   4  18
TORSDOF 6
