REMARK VINA RESULT:      -8.2     14.215     17.168
REMARK  Name = ZINC000009035748
REMARK                            x       y       z     vdW  Elec       q    Type
REMARK                         _______ _______ _______ _____ _____    ______ ____
ROOT
ATOM      1  C   LIG    1       16.313  37.009 212.122  0.00  0.00    +0.218 C 
ATOM      2  N   LIG    1       17.112  37.362 211.089  0.00  0.00    -0.297 N 
ATOM      3  C   LIG    1       18.266  38.249 211.386  0.00  0.00    +0.143 C 
ATOM      4  C   LIG    1       18.690  39.016 210.135  0.00  0.00    -0.025 A 
ATOM      5  C   LIG    1       19.821  39.827 210.212  0.00  0.00    +0.028 A 
ATOM      6  C   LIG    1       20.246  40.542 209.092  0.00  0.00    +0.034 A 
ATOM      7  C   LIG    1       19.539  40.466 207.892  0.00  0.00    +0.023 A 
ATOM      8  C   LIG    1       18.411  39.660 207.816  0.00  0.00    +0.006 A 
ATOM      9  C   LIG    1       17.984  38.931 208.927  0.00  0.00    -0.041 A 
ATOM     10  C   LIG    1       16.750  38.060 208.823  0.00  0.00    +0.054 C 
ATOM     11  C   LIG    1       17.008  36.833 209.710  0.00  0.00    +0.113 C 
ATOM     12  O   LIG    1       16.569  37.396 213.260  0.00  0.00    -0.275 OA
ENDROOT
BRANCH   6  13
ATOM     13  N   LIG    1       21.392  41.358 209.240  0.00  0.00    -0.283 N 
ATOM     14  H   LIG    1       21.255  42.376 209.196  0.00  0.00    +0.155 HD
ATOM     15  C   LIG    1       22.692  40.957 209.433  0.00  0.00    +0.255 C 
ATOM     16  O   LIG    1       22.980  39.779 209.507  0.00  0.00    -0.272 OA
BRANCH  15  17
ATOM     17  C   LIG    1       23.738  42.044 209.597  0.00  0.00    +0.324 C 
BRANCH  17  18
ATOM     18  O   LIG    1       23.070  43.334 209.388  0.00  0.00    -0.483 OA
BRANCH  18  19
ATOM     19  C   LIG    1       23.695  44.470 208.920  0.00  0.00    +0.121 A 
ATOM     20  C   LIG    1       24.389  44.362 207.717  0.00  0.00    +0.047 A 
ATOM     21  C   LIG    1       25.039  45.475 207.194  0.00  0.00    +0.023 A 
ATOM     22  C   LIG    1       24.992  46.693 207.878  0.00  0.00    +0.041 A 
ATOM     23 CL   LIG    1       25.801  48.077 207.228  0.00  0.00    -0.084 Cl
ATOM     24  C   LIG    1       24.295  46.797 209.085  0.00  0.00    +0.023 A 
ATOM     25  C   LIG    1       23.643  45.685 209.610  0.00  0.00    +0.047 A 
ENDBRANCH  18  19
ENDBRANCH  17  18
ENDBRANCH  15  17
ENDBRANCH   6  13
BRANCH   1  27
ATOM     26  C   LIG    1       15.474  34.589 212.002  0.00  0.00    +0.017 C 
ATOM     27  C   LIG    1       15.091  36.079 211.908  0.00  0.00    +0.069 C 
ATOM     28  C   LIG    1       13.958  36.334 212.921  0.00  0.00    +0.017 C 
ENDBRANCH   1  27
TORSDOF 5
