REMARK VINA RESULT:      -6.4     24.959     27.484
REMARK  Name = ZINC000070728784
REMARK                            x       y       z     vdW  Elec       q    Type
REMARK                         _______ _______ _______ _____ _____    ______ ____
ROOT
ATOM      1  C   LIG    1       22.368  40.095 210.234  0.00  0.00    +0.251 C 
ATOM      2  N   LIG    1       21.071  40.554 210.246  0.00  0.00    -0.261 N 
ATOM      3  H   LIG    1       20.928  41.464 210.700  0.00  0.00    +0.157 HD
ATOM      4  O   LIG    1       22.657  39.132 209.535  0.00  0.00    -0.270 OA
ENDROOT
BRANCH   1   6
ATOM      5  C   LIG    1       24.066  41.924 210.666  0.00  0.00    +0.020 A 
ATOM      6  C   LIG    1       23.351  40.768 211.076  0.00  0.00    +0.050 A 
ATOM      7  C   LIG    1       23.588  40.258 212.362  0.00  0.00    +0.014 A 
ATOM      8  C   LIG    1       24.453  40.892 213.241  0.00  0.00    +0.001 A 
ATOM      9  C   LIG    1       25.108  42.057 212.848  0.00  0.00    +0.001 A 
ATOM     10  C   LIG    1       24.916  42.569 211.574  0.00  0.00    +0.015 A 
BRANCH   5  11
ATOM     11  S   LIG    1       23.973  42.601 209.057  0.00  0.00    -0.122 S 
BRANCH  11  13
ATOM     12  C   LIG    1       23.640  45.056 208.014  0.00  0.00    +0.019 C 
ATOM     13  C   LIG    1       23.512  44.343 209.359  0.00  0.00    +0.045 C 
ATOM     14  C   LIG    1       22.065  44.323 209.851  0.00  0.00    +0.019 C 
ENDBRANCH  11  13
ENDBRANCH   5  11
ENDBRANCH   1   6
BRANCH   2  15
ATOM     15  C   LIG    1       19.941  39.972 209.658  0.00  0.00    +0.165 A 
ATOM     16  S   LIG    1       19.370  40.683 208.196  0.00  0.00    -0.060 S 
ATOM     17  C   LIG    1       18.117  39.515 208.202  0.00  0.00    +0.073 A 
ATOM     18  C   LIG    1       18.215  38.694 209.283  0.00  0.00    +0.064 A 
ATOM     19  N   LIG    1       19.263  38.961 210.118  0.00  0.00    -0.228 NA
BRANCH  18  20
ATOM     20  C   LIG    1       17.255  37.555 209.574  0.00  0.00    +0.140 C 
BRANCH  20  21
ATOM     21  N   LIG    1       16.494  37.264 208.320  0.00  0.00    -0.292 NA
ATOM     22  C   LIG    1       15.007  37.378 208.476  0.00  0.00    +0.113 C 
ATOM     23  C   LIG    1       14.482  36.208 209.345  0.00  0.00    +0.175 C 
ATOM     24  O   LIG    1       14.853  34.991 208.697  0.00  0.00    -0.377 OA
ATOM     25  C   LIG    1       16.267  34.812 208.635  0.00  0.00    +0.175 C 
ATOM     26  C   LIG    1       16.843  35.937 207.739  0.00  0.00    +0.113 C 
ENDBRANCH  20  21
ENDBRANCH  18  20
ENDBRANCH   2  15
TORSDOF 6
