REMARK VINA RESULT:      -8.2     30.155     31.718
REMARK  Name = ZINC000049399659
REMARK                            x       y       z     vdW  Elec       q    Type
REMARK                         _______ _______ _______ _____ _____    ______ ____
ROOT
ATOM      1  C   LIG    1       25.912  15.244 189.310  0.00  0.00    +0.173 C 
ENDROOT
BRANCH   1   4
ATOM      2  N   LIG    1       25.898  15.789 191.708  0.00  0.00    -0.282 N 
ATOM      3  H   LIG    1       26.323  16.667 191.374  0.00  0.00    +0.155 HD
ATOM      4  C   LIG    1       25.693  14.829 190.749  0.00  0.00    +0.228 C 
ATOM      5  O   LIG    1       25.361  13.701 191.049  0.00  0.00    -0.275 OA
BRANCH   2   7
ATOM      6  C   LIG    1       26.879  15.916 193.898  0.00  0.00    +0.141 A 
ATOM      7  C   LIG    1       25.724  15.731 193.121  0.00  0.00    +0.077 A 
ATOM      8  C   LIG    1       24.488  15.526 193.739  0.00  0.00    +0.047 A 
ATOM      9  C   LIG    1       24.421  15.490 195.132  0.00  0.00    +0.043 A 
ATOM     10 CL   LIG    1       22.898  15.233 195.914  0.00  0.00    -0.083 Cl
ATOM     11  C   LIG    1       25.572  15.663 195.907  0.00  0.00    +0.024 A 
ATOM     12  C   LIG    1       26.803  15.878 195.291  0.00  0.00    +0.049 A 
BRANCH   6  14
ATOM     13  C   LIG    1       29.387  16.185 193.881  0.00  0.00    +0.277 C 
ATOM     14  O   LIG    1       28.091  16.140 193.240  0.00  0.00    -0.493 OA
ENDBRANCH   6  14
ENDBRANCH   2   7
ENDBRANCH   1   4
BRANCH   1  15
ATOM     15  S   LIG    1       27.154  16.593 189.342  0.00  0.00    -0.077 S 
BRANCH  15  16
ATOM     16  C   LIG    1       27.553  16.777 187.663  0.00  0.00    +0.190 A 
ATOM     17  N   LIG    1       28.780  17.204 187.360  0.00  0.00    -0.207 NA
ATOM     18  C   LIG    1       29.091  17.343 186.083  0.00  0.00    +0.126 A 
ATOM     19  C   LIG    1       28.170  17.051 185.082  0.00  0.00    +0.063 A 
ATOM     20  C   LIG    1       26.917  16.621 185.461  0.00  0.00    +0.117 A 
ATOM     21  N   LIG    1       26.612  16.488 186.744  0.00  0.00    -0.230 NA
BRANCH  18  22
ATOM     22  N   LIG    1       30.367  17.786 185.752  0.00  0.00    -0.315 N 
ATOM     23  C   LIG    1       30.630  17.999 184.316  0.00  0.00    +0.106 C 
ATOM     24  C   LIG    1       32.146  17.810 184.126  0.00  0.00    +0.019 C 
ATOM     25  C   LIG    1       32.867  18.861 184.989  0.00  0.00    +0.003 C 
ATOM     26  C   LIG    1       32.506  18.652 186.469  0.00  0.00    +0.019 C 
ATOM     27  C   LIG    1       30.981  18.811 186.625  0.00  0.00    +0.106 C 
ENDBRANCH  18  22
ENDBRANCH  15  16
ENDBRANCH   1  15
TORSDOF 6
