REMARK VINA RESULT:      -9.2      0.000      0.000
REMARK  Name = ZINC000000593415
REMARK                            x       y       z     vdW  Elec       q    Type
REMARK                         _______ _______ _______ _____ _____    ______ ____
ROOT
ATOM      1  C   LIG    1       25.426  42.055 184.376  0.00  0.00    -0.043 A 
ATOM      2  C   LIG    1       24.512  43.101 184.229  0.00  0.00    +0.006 A 
ATOM      3  C   LIG    1       23.722  43.512 185.298  0.00  0.00    +0.023 A 
ATOM      4  C   LIG    1       23.840  42.869 186.528  0.00  0.00    +0.034 A 
ATOM      5  C   LIG    1       24.755  41.830 186.697  0.00  0.00    +0.023 A 
ATOM      6  C   LIG    1       25.540  41.426 185.623  0.00  0.00    +0.006 A 
ENDROOT
BRANCH   4   7
ATOM      7  N   LIG    1       23.023  43.324 187.589  0.00  0.00    -0.282 N 
ATOM      8  H   LIG    1       22.011  43.320 187.426  0.00  0.00    +0.155 HD
ATOM      9  C   LIG    1       23.435  43.667 188.863  0.00  0.00    +0.248 C 
ATOM     10  O   LIG    1       24.601  43.478 189.180  0.00  0.00    -0.270 OA
BRANCH   9  11
ATOM     11  C   LIG    1       22.440  44.206 189.795  0.00  0.00    +0.042 A 
ATOM     12  C   LIG    1       22.651  44.204 191.188  0.00  0.00    +0.051 A 
ATOM     13  C   LIG    1       21.681  44.737 192.030  0.00  0.00    +0.127 A 
ATOM     14  F   LIG    1       21.906  44.731 193.359  0.00  0.00    -0.205 F 
ATOM     15  C   LIG    1       20.493  45.273 191.554  0.00  0.00    +0.076 A 
ATOM     16  C   LIG    1       20.296  45.255 190.182  0.00  0.00    +0.127 A 
ATOM     17  F   LIG    1       19.151  45.764 189.684  0.00  0.00    -0.205 F 
ATOM     18  C   LIG    1       21.237  44.735 189.300  0.00  0.00    +0.051 A 
ENDBRANCH   9  11
ENDBRANCH   4   7
BRANCH   1  19
ATOM     19  C   LIG    1       26.231  41.608 183.149  0.00  0.00    +0.031 C 
ATOM     20  C   LIG    1       25.323  41.374 181.926  0.00  0.00    +0.014 C 
BRANCH  19  21
ATOM     21  C   LIG    1       27.345  42.644 182.871  0.00  0.00    +0.113 C 
BRANCH  21  22
ATOM     22  N   LIG    1       27.432  42.830 181.428  0.00  0.00    -0.194 NA
ATOM     23  H   LIG    1       26.773  42.181 180.993  0.00  0.00    +0.148 HD
BRANCH  22  24
ATOM     24  S   LIG    1       27.280  44.350 180.854  0.00  0.00    +0.032 S 
ATOM     25  O   LIG    1       28.504  44.707 180.228  0.00  0.00    -0.158 OA
ATOM     26  O   LIG    1       26.104  44.424 180.061  0.00  0.00    -0.158 OA
BRANCH  24  28
ATOM     27  C   LIG    1       28.208  46.364 182.655  0.00  0.00    +0.033 C 
ATOM     28  C   LIG    1       27.055  45.380 182.323  0.00  0.00    +0.142 C 
ATOM     29  C   LIG    1       25.780  46.259 182.335  0.00  0.00    +0.033 C 
ENDBRANCH  24  28
ENDBRANCH  22  24
ENDBRANCH  21  22
ENDBRANCH  19  21
ENDBRANCH   1  19
TORSDOF 7
