REMARK VINA RESULT:      -7.6     28.606     32.601
REMARK  Name = ZINC000000593415
REMARK                            x       y       z     vdW  Elec       q    Type
REMARK                         _______ _______ _______ _____ _____    ______ ____
ROOT
ATOM      1  C   LIG    1       26.419  25.034 213.387  0.00  0.00    -0.043 A 
ATOM      2  C   LIG    1       27.659  25.579 213.042  0.00  0.00    +0.006 A 
ATOM      3  C   LIG    1       27.929  25.965 211.734  0.00  0.00    +0.023 A 
ATOM      4  C   LIG    1       26.953  25.800 210.753  0.00  0.00    +0.034 A 
ATOM      5  C   LIG    1       25.706  25.270 211.079  0.00  0.00    +0.023 A 
ATOM      6  C   LIG    1       25.445  24.886 212.389  0.00  0.00    +0.006 A 
ENDROOT
BRANCH   4   7
ATOM      7  N   LIG    1       27.268  26.213 209.437  0.00  0.00    -0.282 N 
ATOM      8  H   LIG    1       27.038  27.181 209.190  0.00  0.00    +0.155 HD
ATOM      9  C   LIG    1       27.955  25.486 208.483  0.00  0.00    +0.248 C 
ATOM     10  O   LIG    1       28.447  24.411 208.797  0.00  0.00    -0.270 OA
BRANCH   9  11
ATOM     11  C   LIG    1       28.100  26.059 207.141  0.00  0.00    +0.042 A 
ATOM     12  C   LIG    1       29.079  25.598 206.240  0.00  0.00    +0.051 A 
ATOM     13  C   LIG    1       29.168  26.167 204.974  0.00  0.00    +0.127 A 
ATOM     14  F   LIG    1       30.109  25.706 204.124  0.00  0.00    -0.205 F 
ATOM     15  C   LIG    1       28.329  27.188 204.555  0.00  0.00    +0.076 A 
ATOM     16  C   LIG    1       27.379  27.639 205.459  0.00  0.00    +0.127 A 
ATOM     17  F   LIG    1       26.549  28.634 205.085  0.00  0.00    -0.205 F 
ATOM     18  C   LIG    1       27.250  27.101 206.734  0.00  0.00    +0.051 A 
ENDBRANCH   9  11
ENDBRANCH   4   7
BRANCH   1  19
ATOM     19  C   LIG    1       26.197  24.576 214.833  0.00  0.00    +0.031 C 
ATOM     20  C   LIG    1       26.815  25.560 215.844  0.00  0.00    +0.014 C 
BRANCH  19  21
ATOM     21  C   LIG    1       24.684  24.358 215.067  0.00  0.00    +0.113 C 
BRANCH  21  22
ATOM     22  N   LIG    1       24.084  25.656 215.355  0.00  0.00    -0.194 NA
ATOM     23  H   LIG    1       23.545  25.934 214.533  0.00  0.00    +0.148 HD
BRANCH  22  24
ATOM     24  S   LIG    1       23.231  25.801 216.738  0.00  0.00    +0.032 S 
ATOM     25  O   LIG    1       23.706  24.823 217.651  0.00  0.00    -0.158 OA
ATOM     26  O   LIG    1       23.276  27.157 217.163  0.00  0.00    -0.158 OA
BRANCH  24  28
ATOM     27  C   LIG    1       20.948  24.093 216.893  0.00  0.00    +0.033 C 
ATOM     28  C   LIG    1       21.530  25.393 216.280  0.00  0.00    +0.142 C 
ATOM     29  C   LIG    1       20.473  26.480 216.598  0.00  0.00    +0.033 C 
ENDBRANCH  24  28
ENDBRANCH  22  24
ENDBRANCH  21  22
ENDBRANCH  19  21
ENDBRANCH   1  19
TORSDOF 7
