REMARK VINA RESULT:      -8.0      1.752      2.399
REMARK  Name = ZINC000022624335
REMARK                            x       y       z     vdW  Elec       q    Type
REMARK                         _______ _______ _______ _____ _____    ______ ____
ROOT
ATOM      1  C   LIG    1       36.964  20.388 187.526  0.00  0.00    +0.121 A 
ATOM      2  N   LIG    1       36.227  21.123 186.683  0.00  0.00    -0.238 NA
ATOM      3  C   LIG    1       35.304  20.515 185.937  0.00  0.00    +0.136 A 
ATOM      4  C   LIG    1       35.079  19.136 186.014  0.00  0.00    +0.052 A 
ATOM      5  C   LIG    1       35.829  18.361 186.897  0.00  0.00    +0.028 A 
ATOM      6  C   LIG    1       36.783  19.005 187.664  0.00  0.00    +0.045 A 
ENDROOT
BRANCH   1  11
ATOM      7  C   LIG    1       41.433  21.301 190.231  0.00  0.00    +0.221 C 
ATOM      8  N   LIG    1       40.212  21.733 189.820  0.00  0.00    -0.298 N 
ATOM      9  C   LIG    1       38.895  21.557 190.483  0.00  0.00    +0.126 C 
ATOM     10  C   LIG    1       38.103  20.510 189.660  0.00  0.00    +0.125 C 
ATOM     11  N   LIG    1       37.942  21.044 188.283  0.00  0.00    -0.312 N 
ATOM     12  C   LIG    1       39.265  21.263 187.619  0.00  0.00    +0.125 C 
ATOM     13  C   LIG    1       40.040  22.308 188.454  0.00  0.00    +0.126 C 
ATOM     14  O   LIG    1       42.392  21.441 189.473  0.00  0.00    -0.275 OA
BRANCH   7  15
ATOM     15  C   LIG    1       41.694  20.629 191.632  0.00  0.00    +0.041 C 
ATOM     16  C   LIG    1       43.213  20.382 191.845  0.00  0.00    +0.020 C 
ATOM     17  C   LIG    1       41.334  21.565 192.812  0.00  0.00    +0.020 C 
BRANCH  15  19
ATOM     18  C   LIG    1       41.108  18.299 190.605  0.00  0.00    +0.005 C 
ATOM     19  C   LIG    1       41.002  19.246 191.813  0.00  0.00    +0.012 C 
ENDBRANCH  15  19
ENDBRANCH   7  15
ENDBRANCH   1  11
BRANCH   4  20
ATOM     20  N   LIG    1       34.053  18.556 185.210  0.00  0.00    -0.280 N 
ATOM     21  H   LIG    1       34.339  18.053 184.363  0.00  0.00    +0.155 HD
ATOM     22  C   LIG    1       32.706  18.521 185.503  0.00  0.00    +0.248 C 
ATOM     23  O   LIG    1       32.333  18.904 186.604  0.00  0.00    -0.270 OA
BRANCH  22  24
ATOM     24  C   LIG    1       31.791  17.983 184.493  0.00  0.00    +0.037 A 
ATOM     25  C   LIG    1       32.251  17.587 183.220  0.00  0.00    +0.016 A 
ATOM     26  C   LIG    1       31.366  17.067 182.280  0.00  0.00    +0.039 A 
ATOM     27  C   LIG    1       30.024  16.951 182.616  0.00  0.00    +0.123 A 
ATOM     28  F   LIG    1       29.163  16.442 181.700  0.00  0.00    -0.205 F 
ATOM     29  C   LIG    1       29.534  17.344 183.853  0.00  0.00    +0.039 A 
ATOM     30  C   LIG    1       30.421  17.863 184.790  0.00  0.00    +0.016 A 
ENDBRANCH  22  24
ENDBRANCH   4  20
TORSDOF 5
