REMARK VINA RESULT:      -9.1     27.045     28.280
REMARK  Name = ZINC000006083766
REMARK                            x       y       z     vdW  Elec       q    Type
REMARK                         _______ _______ _______ _____ _____    ______ ____
ROOT
ATOM      1  O   LIG    1       22.185  45.609 185.037  0.00  0.00    -0.468 OA
ENDROOT
BRANCH   1   2
ATOM      2  C   LIG    1       22.965  45.423 183.943  0.00  0.00    +0.227 A 
ATOM      3  C   LIG    1       23.886  44.362 183.914  0.00  0.00    +0.073 A 
ATOM      4  C   LIG    1       24.213  43.351 184.863  0.00  0.00    -0.023 A 
ATOM      5  C   LIG    1       23.564  43.207 186.232  0.00  0.00    +0.037 C 
ATOM      6  C   LIG    1       23.927  41.823 186.802  0.00  0.00    +0.005 C 
ATOM      7  C   LIG    1       25.427  41.519 186.648  0.00  0.00    +0.005 C 
ATOM      8  C   LIG    1       25.808  41.355 185.166  0.00  0.00    +0.043 C 
ATOM      9  C   LIG    1       25.211  42.531 184.422  0.00  0.00    -0.004 A 
ATOM     10  S   LIG    1       25.765  42.948 182.830  0.00  0.00    -0.073 S 
ATOM     11  C   LIG    1       24.646  44.264 182.759  0.00  0.00    +0.116 A 
ATOM     12  N   LIG    1       24.510  45.120 181.719  0.00  0.00    -0.228 NA
ATOM     13  C   LIG    1       23.619  46.075 181.839  0.00  0.00    +0.226 A 
ATOM     14  N   LIG    1       22.833  46.257 182.934  0.00  0.00    -0.201 NA
ENDBRANCH   1   2
BRANCH   1  15
ATOM     15  C   LIG    1       22.384  46.713 185.967  0.00  0.00    +0.310 C 
BRANCH  15  17
ATOM     16  O   LIG    1       20.166  47.160 186.680  0.00  0.00    -0.288 OA
ATOM     17  C   LIG    1       21.252  46.707 186.990  0.00  0.00    +0.200 C 
BRANCH  17  18
ATOM     18  C   LIG    1       21.456  46.116 188.313  0.00  0.00    +0.025 A 
ATOM     19  C   LIG    1       22.427  45.119 188.534  0.00  0.00    +0.061 A 
ATOM     20  C   LIG    1       22.592  44.584 189.803  0.00  0.00    +0.163 A 
ATOM     21  O   LIG    1       23.563  43.628 190.012  0.00  0.00    -0.485 OA
ATOM     22  C   LIG    1       23.964  43.348 191.389  0.00  0.00    +0.270 C 
ATOM     23  C   LIG    1       22.673  43.182 192.208  0.00  0.00    +0.270 C 
ATOM     24  O   LIG    1       21.942  44.441 192.109  0.00  0.00    -0.485 OA
ATOM     25  C   LIG    1       21.790  45.008 190.867  0.00  0.00    +0.162 A 
ATOM     26  C   LIG    1       20.833  45.996 190.672  0.00  0.00    +0.050 A 
ATOM     27  C   LIG    1       20.668  46.544 189.402  0.00  0.00    +0.015 A 
ENDBRANCH  17  18
ENDBRANCH  15  17
ENDBRANCH   1  15
TORSDOF 4
