REMARK VINA RESULT:      -7.5     24.363     26.924
REMARK  Name = ZINC000009527204
REMARK                            x       y       z     vdW  Elec       q    Type
REMARK                         _______ _______ _______ _____ _____    ______ ____
ROOT
ATOM      1  O   LIG    1       18.834  38.224 210.100  0.00  0.00    -0.267 OA
ATOM      2  C   LIG    1       18.728  39.403 210.436  0.00  0.00    +0.282 C 
ATOM      3  N   LIG    1       19.878  40.012 210.927  0.00  0.00    -0.292 N 
ATOM      4  C   LIG    1       20.204  41.435 210.649  0.00  0.00    +0.127 C 
ATOM      5  C   LIG    1       21.173  41.445 209.439  0.00  0.00    +0.127 C 
ATOM      6  N   LIG    1       22.355  40.629 209.819  0.00  0.00    -0.294 N 
ATOM      7  C   LIG    1       23.445  41.216 210.450  0.00  0.00    +0.253 C 
ATOM      8  O   LIG    1       23.970  40.581 211.362  0.00  0.00    -0.269 OA
ATOM      9  C   LIG    1       22.019  39.203 210.091  0.00  0.00    +0.127 C 
ATOM     10  C   LIG    1       21.062  39.193 211.306  0.00  0.00    +0.127 C 
ENDROOT
BRANCH   7  11
ATOM     11  C   LIG    1       23.904  42.534 210.042  0.00  0.00    +0.075 A 
ATOM     12  S   LIG    1       24.097  43.812 211.201  0.00  0.00    -0.083 S 
ATOM     13  C   LIG    1       24.619  44.908 209.972  0.00  0.00    +0.024 A 
ATOM     14  C   LIG    1       24.960  46.298 210.149  0.00  0.00    -0.001 A 
ATOM     15  C   LIG    1       25.083  47.071 209.026  0.00  0.00    -0.002 A 
ATOM     16  C   LIG    1       24.799  46.566 207.619  0.00  0.00    +0.048 C 
ATOM     17  C   LIG    1       25.185  45.061 207.524  0.00  0.00    +0.041 C 
ATOM     18  S   LIG    1       25.502  48.702 209.407  0.00  0.00    -0.101 S 
ATOM     19  C   LIG    1       25.508  48.332 211.097  0.00  0.00    +0.046 A 
ATOM     20  C   LIG    1       25.202  47.024 211.334  0.00  0.00    +0.017 A 
ATOM     21  C   LIG    1       24.662  44.301 208.740  0.00  0.00    -0.032 A 
ATOM     22  C   LIG    1       24.261  42.963 208.779  0.00  0.00    +0.025 A 
ENDBRANCH   7  11
BRANCH   2  23
ATOM     23  C   LIG    1       17.459  40.121 210.309  0.00  0.00    +0.189 A 
ATOM     24  O   LIG    1       16.863  40.812 211.345  0.00  0.00    -0.458 OA
ATOM     25  C   LIG    1       15.702  41.325 210.886  0.00  0.00    +0.196 A 
ATOM     26  C   LIG    1       15.535  40.982 209.587  0.00  0.00    +0.042 A 
ATOM     27  C   LIG    1       16.643  40.217 209.220  0.00  0.00    +0.054 A 
ENDBRANCH   2  23
TORSDOF 2
