REMARK VINA RESULT:      -7.5     10.025     12.512
REMARK  Name = ZINC000049420917
REMARK                            x       y       z     vdW  Elec       q    Type
REMARK                         _______ _______ _______ _____ _____    ______ ____
ROOT
ATOM      1  N   LIG    1       30.516  18.807 199.512  0.00  0.00    -0.205 N 
ATOM      2  C   LIG    1       29.363  19.619 199.644  0.00  0.00    +0.160 A 
ATOM      3  N   LIG    1       29.545  20.906 199.974  0.00  0.00    -0.238 NA
ATOM      4  C   LIG    1       28.483  21.698 200.116  0.00  0.00    +0.113 A 
ATOM      5  C   LIG    1       27.186  21.228 199.921  0.00  0.00    +0.022 A 
ATOM      6  C   LIG    1       26.983  19.898 199.571  0.00  0.00    +0.034 A 
ATOM      7  C   LIG    1       28.099  19.081 199.441  0.00  0.00    +0.149 A 
ATOM      8  S   LIG    1       28.079  17.392 198.941  0.00  0.00    +0.082 S 
ATOM      9  O   LIG    1       28.212  16.564 200.079  0.00  0.00    -0.150 OA
ATOM     10  O   LIG    1       26.950  17.166 198.115  0.00  0.00    -0.150 OA
ATOM     11  N   LIG    1       29.441  17.269 198.038  0.00  0.00    -0.150 N 
ATOM     12  C   LIG    1       30.540  17.625 198.756  0.00  0.00    +0.334 C 
ATOM     13  O   LIG    1       31.545  16.922 198.729  0.00  0.00    -0.250 OA
ENDROOT
BRANCH   1  18
ATOM     14  C   LIG    1       35.274  20.284 202.306  0.00  0.00    +0.044 C 
ATOM     15  C   LIG    1       34.008  19.900 201.570  0.00  0.00    -0.050 A 
ATOM     16  C   LIG    1       33.814  20.309 200.249  0.00  0.00    +0.005 A 
ATOM     17  C   LIG    1       32.659  19.950 199.563  0.00  0.00    +0.024 A 
ATOM     18  C   LIG    1       31.699  19.173 200.210  0.00  0.00    +0.044 A 
ATOM     19  C   LIG    1       31.880  18.752 201.526  0.00  0.00    +0.024 A 
ATOM     20  C   LIG    1       33.039  19.118 202.202  0.00  0.00    +0.005 A 
ENDBRANCH   1  18
BRANCH  11  21
ATOM     21  C   LIG    1       29.487  16.070 197.204  0.00  0.00    +0.171 C 
BRANCH  21  22
ATOM     22  C   LIG    1       29.305  16.605 195.798  0.00  0.00    -0.028 A 
ATOM     23  C   LIG    1       29.331  15.727 194.708  0.00  0.00    +0.008 A 
ATOM     24  C   LIG    1       29.159  16.210 193.414  0.00  0.00    +0.038 A 
ATOM     25  C   LIG    1       28.958  17.571 193.231  0.00  0.00    +0.123 A 
ATOM     26  F   LIG    1       28.791  18.045 191.973  0.00  0.00    -0.205 F 
ATOM     27  C   LIG    1       28.922  18.463 194.294  0.00  0.00    +0.038 A 
ATOM     28  C   LIG    1       29.096  17.972 195.585  0.00  0.00    +0.008 A 
ENDBRANCH  21  22
ENDBRANCH  11  21
TORSDOF 3
