REMARK VINA RESULT:      -8.2     24.065     27.239
REMARK  Name = ZINC000186872603
REMARK                            x       y       z     vdW  Elec       q    Type
REMARK                         _______ _______ _______ _____ _____    ______ ____
ROOT
ATOM      1  N   LIG    1       18.047  38.525 209.623  0.00  0.00    -0.297 N 
ATOM      2  C   LIG    1       19.143  38.776 210.596  0.00  0.00    +0.123 C 
ATOM      3  C   LIG    1       19.299  40.309 210.766  0.00  0.00    +0.103 C 
ATOM      4  N   LIG    1       19.600  40.956 209.455  0.00  0.00    -0.299 NA
ATOM      5  C   LIG    1       18.472  40.693 208.506  0.00  0.00    +0.103 C 
ATOM      6  C   LIG    1       18.241  39.171 208.298  0.00  0.00    +0.123 C 
ENDROOT
BRANCH   1  10
ATOM      7  C   LIG    1       15.874  35.203 212.269  0.00  0.00    +0.066 C 
ATOM      8  C   LIG    1       16.331  35.707 210.922  0.00  0.00    +0.044 A 
ATOM      9  N   LIG    1       16.973  36.856 210.866  0.00  0.00    -0.220 NA
ATOM     10  C   LIG    1       17.376  37.310 209.673  0.00  0.00    +0.218 A 
ATOM     11  N   LIG    1       17.165  36.657 208.524  0.00  0.00    -0.219 NA
ATOM     12  C   LIG    1       16.521  35.502 208.548  0.00  0.00    +0.049 A 
ATOM     13  C   LIG    1       16.082  34.993 209.761  0.00  0.00    +0.046 A 
BRANCH  12  14
ATOM     14  C   LIG    1       16.269  34.746 207.247  0.00  0.00    +0.032 C 
ATOM     15  C   LIG    1       15.533  33.434 207.558  0.00  0.00    +0.014 C 
ATOM     16  C   LIG    1       17.613  34.467 206.556  0.00  0.00    +0.014 C 
ENDBRANCH  12  14
ENDBRANCH   1  10
BRANCH   4  17
ATOM     17  C   LIG    1       20.938  40.597 208.939  0.00  0.00    +0.085 C 
BRANCH  17  18
ATOM     18  C   LIG    1       21.927  41.262 209.914  0.00  0.00    +0.025 C 
BRANCH  18  19
ATOM     19  C   LIG    1       23.316  41.307 209.248  0.00  0.00    +0.097 C 
BRANCH  19  20
ATOM     20  C   LIG    1       23.731  42.754 209.094  0.00  0.00    +0.197 A 
ATOM     21  O   LIG    1       24.335  43.148 207.940  0.00  0.00    -0.440 OA
ATOM     22  C   LIG    1       24.566  44.454 208.105  0.00  0.00    +0.155 A 
ATOM     23  C   LIG    1       25.162  45.364 207.234  0.00  0.00    +0.048 A 
ATOM     24  C   LIG    1       25.278  46.683 207.662  0.00  0.00    +0.004 A 
ATOM     25  C   LIG    1       24.805  47.063 208.934  0.00  0.00    +0.002 A 
ATOM     26  C   LIG    1       24.214  46.128 209.781  0.00  0.00    +0.031 A 
ATOM     27  C   LIG    1       24.097  44.806 209.347  0.00  0.00    +0.110 A 
ATOM     28  N   LIG    1       23.567  43.691 209.953  0.00  0.00    -0.213 NA
ENDBRANCH  19  20
ENDBRANCH  18  19
ENDBRANCH  17  18
ENDBRANCH   4  17
TORSDOF 6
