REMARK VINA RESULT:      -7.1      4.884      6.665
REMARK  Name = ZINC000006087400
REMARK                            x       y       z     vdW  Elec       q    Type
REMARK                         _______ _______ _______ _____ _____    ______ ____
ROOT
ATOM      1  C   LIG    1       22.807  48.019 181.810  0.00  0.00    +0.214 C 
ENDROOT
BRANCH   1   7
ATOM      2  C   LIG    1       19.968  47.768 185.263  0.00  0.00    +0.010 C 
ATOM      3  C   LIG    1       20.060  49.298 185.459  0.00  0.00    +0.018 C 
ATOM      4  C   LIG    1       21.243  49.928 184.652  0.00  0.00    +0.115 C 
ATOM      5  C   LIG    1       21.304  49.492 183.183  0.00  0.00    +0.247 C 
ATOM      6  O   LIG    1       20.547  49.712 182.255  0.00  0.00    -0.273 OA
ATOM      7  N   LIG    1       22.444  48.764 183.020  0.00  0.00    -0.215 N 
ATOM      8  C   LIG    1       23.133  48.682 184.200  0.00  0.00    +0.310 C 
ATOM      9  O   LIG    1       24.153  48.043 184.379  0.00  0.00    -0.252 OA
ATOM     10  N   LIG    1       22.508  49.406 185.149  0.00  0.00    -0.285 N 
ATOM     11  H   LIG    1       22.715  49.220 186.136  0.00  0.00    +0.151 HD
ATOM     12  C   LIG    1       21.283  51.468 184.823  0.00  0.00    +0.035 C 
ATOM     13  C   LIG    1       19.931  52.076 184.405  0.00  0.00    +0.003 C 
ATOM     14  C   LIG    1       18.771  51.466 185.200  0.00  0.00    +0.000 C 
ATOM     15  C   LIG    1       18.731  49.943 185.023  0.00  0.00    +0.006 C 
ENDBRANCH   1   7
BRANCH   1  16
ATOM     16  C   LIG    1       22.296  46.587 181.982  0.00  0.00    +0.238 C 
ATOM     17  N   LIG    1       23.149  45.513 181.778  0.00  0.00    -0.267 N 
ATOM     18  O   LIG    1       21.138  46.362 182.305  0.00  0.00    -0.274 OA
BRANCH  17  19
ATOM     19  C   LIG    1       24.463  45.673 181.278  0.00  0.00    +0.010 C 
ATOM     20  C   LIG    1       24.633  45.397 179.795  0.00  0.00    +0.051 C 
ATOM     21  C   LIG    1       26.134  45.134 179.537  0.00  0.00    +0.006 C 
ATOM     22  C   LIG    1       26.924  46.323 180.121  0.00  0.00    +0.004 C 
ATOM     23  C   LIG    1       26.893  46.215 181.662  0.00  0.00    +0.029 C 
ATOM     24  C   LIG    1       25.451  46.057 182.106  0.00  0.00    -0.008 C 
ENDBRANCH  17  19
BRANCH  17  25
ATOM     25  C   LIG    1       22.660  44.143 182.019  0.00  0.00    +0.187 C 
BRANCH  25  26
ATOM     26  C   LIG    1       23.231  43.731 183.361  0.00  0.00    +0.122 A 
ATOM     27  O   LIG    1       22.607  44.091 184.518  0.00  0.00    -0.466 OA
ATOM     28  C   LIG    1       23.344  43.597 185.544  0.00  0.00    +0.195 A 
ATOM     29  C   LIG    1       24.416  42.934 185.054  0.00  0.00    +0.041 A 
ATOM     30  C   LIG    1       24.344  43.022 183.660  0.00  0.00    +0.046 A 
ENDBRANCH  25  26
ENDBRANCH  17  25
ENDBRANCH   1  16
TORSDOF 5
