REMARK VINA RESULT:      -7.7      1.949      3.832
REMARK  Name = ZINC000006087399
REMARK                            x       y       z     vdW  Elec       q    Type
REMARK                         _______ _______ _______ _____ _____    ______ ____
ROOT
ATOM      1  C   LIG    1       21.523  45.586 183.492  0.00  0.00    +0.214 C 
ENDROOT
BRANCH   1   7
ATOM      2  C   LIG    1       18.781  49.075 186.689  0.00  0.00    +0.010 C 
ATOM      3  C   LIG    1       18.760  49.238 185.152  0.00  0.00    +0.018 C 
ATOM      4  C   LIG    1       20.148  48.928 184.496  0.00  0.00    +0.115 C 
ATOM      5  C   LIG    1       20.672  47.526 184.817  0.00  0.00    +0.247 C 
ATOM      6  O   LIG    1       20.992  47.025 185.880  0.00  0.00    -0.273 OA
ATOM      7  N   LIG    1       20.806  46.854 183.642  0.00  0.00    -0.215 N 
ATOM      8  C   LIG    1       20.449  47.650 182.592  0.00  0.00    +0.310 C 
ATOM      9  O   LIG    1       20.547  47.350 181.416  0.00  0.00    -0.252 OA
ATOM     10  N   LIG    1       19.983  48.828 183.050  0.00  0.00    -0.285 N 
ATOM     11  H   LIG    1       19.961  49.637 182.421  0.00  0.00    +0.151 HD
ATOM     12  C   LIG    1       21.230  49.992 184.821  0.00  0.00    +0.035 C 
ATOM     13  C   LIG    1       20.722  51.393 184.423  0.00  0.00    +0.003 C 
ATOM     14  C   LIG    1       19.386  51.730 185.096  0.00  0.00    +0.000 C 
ATOM     15  C   LIG    1       18.324  50.669 184.769  0.00  0.00    +0.006 C 
ENDBRANCH   1   7
BRANCH   1  16
ATOM     16  C   LIG    1       22.995  45.878 183.191  0.00  0.00    +0.238 C 
ATOM     17  N   LIG    1       23.581  45.226 182.120  0.00  0.00    -0.267 N 
ATOM     18  O   LIG    1       23.677  46.657 183.845  0.00  0.00    -0.274 OA
BRANCH  17  19
ATOM     19  C   LIG    1       22.853  44.325 181.310  0.00  0.00    +0.010 C 
ATOM     20  C   LIG    1       22.342  44.901 180.003  0.00  0.00    +0.051 C 
ATOM     21  C   LIG    1       21.222  43.970 179.488  0.00  0.00    +0.006 C 
ATOM     22  C   LIG    1       21.780  42.532 179.457  0.00  0.00    +0.004 C 
ATOM     23  C   LIG    1       21.899  42.028 180.914  0.00  0.00    +0.029 C 
ATOM     24  C   LIG    1       22.682  43.054 181.712  0.00  0.00    -0.008 C 
ENDBRANCH  17  19
BRANCH  17  25
ATOM     25  C   LIG    1       25.028  45.357 181.884  0.00  0.00    +0.187 C 
BRANCH  25  26
ATOM     26  C   LIG    1       25.668  44.176 182.587  0.00  0.00    +0.122 A 
ATOM     27  O   LIG    1       25.754  44.146 183.947  0.00  0.00    -0.466 OA
ATOM     28  C   LIG    1       26.379  42.990 184.287  0.00  0.00    +0.195 A 
ATOM     29  C   LIG    1       26.684  42.297 183.168  0.00  0.00    +0.041 A 
ATOM     30  C   LIG    1       26.230  43.054 182.083  0.00  0.00    +0.046 A 
ENDBRANCH  25  26
ENDBRANCH  17  25
ENDBRANCH   1  16
TORSDOF 5
