REMARK VINA RESULT:      -6.5     22.677     24.914
REMARK  Name = ZINC000000623134
REMARK                            x       y       z     vdW  Elec       q    Type
REMARK                         _______ _______ _______ _____ _____    ______ ____
ROOT
ATOM      1  N   LIG    1       22.266  41.162 211.368  0.00  0.00    -0.299 N 
ATOM      2  H   LIG    1       22.150  41.398 212.360  0.00  0.00    +0.150 HD
ENDROOT
BRANCH   1   5
ATOM      3  C   LIG    1       20.204  40.197 209.375  0.00  0.00    +0.409 C 
ATOM      4  N   LIG    1       20.415  39.932 210.697  0.00  0.00    -0.212 N 
ATOM      5  C   LIG    1       21.796  39.823 211.156  0.00  0.00    +0.235 C 
ATOM      6  S   LIG    1       21.697  39.168 212.874  0.00  0.00    -0.086 S 
ATOM      7  C   LIG    1       19.969  39.301 212.854  0.00  0.00    +0.006 C 
ATOM      8  C   LIG    1       18.944  39.009 213.903  0.00  0.00    +0.044 C 
ATOM      9  C   LIG    1       17.689  39.673 213.245  0.00  0.00    +0.011 C 
ATOM     10  C   LIG    1       17.947  39.768 211.704  0.00  0.00    +0.052 C 
ATOM     11  C   LIG    1       19.442  39.693 211.707  0.00  0.00    +0.029 C 
ATOM     12  O   LIG    1       21.132  40.326 208.578  0.00  0.00    -0.226 OA
BRANCH   3  13
ATOM     13  O   LIG    1       18.919  40.294 208.984  0.00  0.00    -0.450 OA
BRANCH  13  15
ATOM     14  C   LIG    1       17.510  38.560 208.254  0.00  0.00    +0.048 C 
ATOM     15  C   LIG    1       18.472  39.645 207.776  0.00  0.00    +0.230 C 
ENDBRANCH  13  15
ENDBRANCH   3  13
ENDBRANCH   1   5
BRANCH   1  16
ATOM     16  C   LIG    1       23.523  41.456 210.924  0.00  0.00    +0.136 C 
ATOM     17  S   LIG    1       24.855  41.390 211.937  0.00  0.00    -0.018 S 
BRANCH  16  18
ATOM     18  N   LIG    1       23.521  41.855 209.596  0.00  0.00    -0.297 N 
ATOM     19  H   LIG    1       23.134  41.158 208.934  0.00  0.00    +0.154 HD
BRANCH  18  20
ATOM     20  C   LIG    1       23.696  43.166 209.113  0.00  0.00    +0.033 A 
ATOM     21  C   LIG    1       24.781  43.403 208.267  0.00  0.00    +0.027 A 
ATOM     22  C   LIG    1       25.011  44.686 207.784  0.00  0.00    +0.047 A 
ATOM     23  C   LIG    1       24.153  45.725 208.156  0.00  0.00    +0.120 A 
ATOM     24  C   LIG    1       23.075  45.491 209.007  0.00  0.00    +0.047 A 
ATOM     25  C   LIG    1       22.844  44.209 209.492  0.00  0.00    +0.027 A 
BRANCH  23  26
ATOM     26  O   LIG    1       24.331  47.020 207.708  0.00  0.00    -0.495 OA
ATOM     27  C   LIG    1       25.284  47.958 208.253  0.00  0.00    +0.277 C 
ENDBRANCH  23  26
ENDBRANCH  18  20
ENDBRANCH  16  18
ENDBRANCH   1  16
TORSDOF 7
