REMARK VINA RESULT:      -7.7      0.000      0.000
REMARK  Name = ZINC000006087397
REMARK                            x       y       z     vdW  Elec       q    Type
REMARK                         _______ _______ _______ _____ _____    ______ ____
ROOT
ATOM      1  C   LIG    1       22.493  45.742 183.584  0.00  0.00    +0.214 C 
ENDROOT
BRANCH   1   7
ATOM      2  C   LIG    1       22.658  50.578 183.460  0.00  0.00    +0.010 C 
ATOM      3  C   LIG    1       21.140  50.426 183.701  0.00  0.00    +0.018 C 
ATOM      4  C   LIG    1       20.775  49.016 184.271  0.00  0.00    +0.115 C 
ATOM      5  C   LIG    1       21.218  47.892 183.340  0.00  0.00    +0.247 C 
ATOM      6  O   LIG    1       20.963  47.709 182.163  0.00  0.00    -0.273 OA
ATOM      7  N   LIG    1       22.006  47.044 184.056  0.00  0.00    -0.215 N 
ATOM      8  C   LIG    1       22.168  47.511 185.334  0.00  0.00    +0.310 C 
ATOM      9  O   LIG    1       22.802  46.962 186.216  0.00  0.00    -0.252 OA
ATOM     10  N   LIG    1       21.526  48.689 185.475  0.00  0.00    -0.285 N 
ATOM     11  H   LIG    1       21.321  49.048 186.413  0.00  0.00    +0.151 HD
ATOM     12  C   LIG    1       19.255  48.895 184.545  0.00  0.00    +0.035 C 
ATOM     13  C   LIG    1       18.813  50.013 185.509  0.00  0.00    +0.003 C 
ATOM     14  C   LIG    1       19.161  51.401 184.955  0.00  0.00    +0.000 C 
ATOM     15  C   LIG    1       20.666  51.519 184.680  0.00  0.00    +0.006 C 
ENDBRANCH   1   7
BRANCH   1  16
ATOM     16  C   LIG    1       23.899  45.964 183.016  0.00  0.00    +0.238 C 
ATOM     17  N   LIG    1       24.650  44.929 182.442  0.00  0.00    -0.267 N 
ATOM     18  O   LIG    1       24.399  47.073 183.090  0.00  0.00    -0.274 OA
BRANCH  17  19
ATOM     19  C   LIG    1       25.936  45.149 181.852  0.00  0.00    +0.010 C 
ATOM     20  C   LIG    1       27.098  45.340 182.816  0.00  0.00    +0.051 C 
ATOM     21  C   LIG    1       28.214  46.100 182.067  0.00  0.00    +0.006 C 
ATOM     22  C   LIG    1       28.537  45.296 180.792  0.00  0.00    +0.004 C 
ATOM     23  C   LIG    1       27.370  45.479 179.797  0.00  0.00    +0.029 C 
ATOM     24  C   LIG    1       26.062  45.186 180.511  0.00  0.00    -0.008 C 
ENDBRANCH  17  19
BRANCH  17  25
ATOM     25  C   LIG    1       24.131  43.547 182.380  0.00  0.00    +0.187 C 
BRANCH  25  26
ATOM     26  C   LIG    1       24.673  42.853 183.615  0.00  0.00    +0.122 A 
ATOM     27  O   LIG    1       23.997  42.901 184.796  0.00  0.00    -0.466 OA
ATOM     28  C   LIG    1       24.714  42.194 185.704  0.00  0.00    +0.195 A 
ATOM     29  C   LIG    1       25.827  41.701 185.115  0.00  0.00    +0.041 A 
ATOM     30  C   LIG    1       25.799  42.122 183.782  0.00  0.00    +0.046 A 
ENDBRANCH  25  26
ENDBRANCH  17  25
ENDBRANCH   1  16
TORSDOF 5
