REMARK VINA RESULT:      -8.5      0.000      0.000
REMARK  Name = ZINC000006086011
REMARK                            x       y       z     vdW  Elec       q    Type
REMARK                         _______ _______ _______ _____ _____    ______ ____
ROOT
ATOM      1  N   LIG    1       34.151  19.834 186.500  0.00  0.00    -0.286 NA
ATOM      2  C   LIG    1       34.158  21.030 185.629  0.00  0.00    +0.106 C 
ENDROOT
BRANCH   1   3
ATOM      3  C   LIG    1       35.517  19.505 187.069  0.00  0.00    +0.140 C 
ATOM      4  C   LIG    1       35.773  17.980 187.020  0.00  0.00    +0.034 C 
BRANCH   3   7
ATOM      5  N   LIG    1       36.700  19.578 189.206  0.00  0.00    -0.281 N 
ATOM      6  H   LIG    1       37.326  18.985 188.637  0.00  0.00    +0.155 HD
ATOM      7  C   LIG    1       35.607  20.033 188.516  0.00  0.00    +0.234 C 
ATOM      8  O   LIG    1       34.820  20.815 189.017  0.00  0.00    -0.274 OA
BRANCH   5  10
ATOM      9  C   LIG    1       37.309  18.746 191.370  0.00  0.00    +0.141 A 
ATOM     10  C   LIG    1       37.164  19.852 190.519  0.00  0.00    +0.076 A 
ATOM     11  C   LIG    1       37.461  21.135 190.985  0.00  0.00    +0.027 A 
ATOM     12  C   LIG    1       37.911  21.303 192.292  0.00  0.00    +0.002 A 
ATOM     13  C   LIG    1       38.061  20.202 193.136  0.00  0.00    +0.004 A 
ATOM     14  C   LIG    1       37.759  18.921 192.678  0.00  0.00    +0.047 A 
BRANCH   9  16
ATOM     15  C   LIG    1       36.281  16.454 191.579  0.00  0.00    +0.277 C 
ATOM     16  O   LIG    1       37.004  17.485 190.862  0.00  0.00    -0.493 OA
ENDBRANCH   9  16
ENDBRANCH   5  10
ENDBRANCH   3   7
ENDBRANCH   1   3
BRANCH   1  17
ATOM     17  C   LIG    1       33.469  18.662 185.829  0.00  0.00    +0.181 C 
BRANCH  17  18
ATOM     18  C   LIG    1       31.964  18.723 186.074  0.00  0.00    +0.231 C 
ATOM     19  N   LIG    1       31.229  17.636 185.668  0.00  0.00    -0.284 N 
ATOM     20  H   LIG    1       31.768  16.857 185.262  0.00  0.00    +0.155 HD
ATOM     21  O   LIG    1       31.427  19.692 186.575  0.00  0.00    -0.274 OA
BRANCH  19  22
ATOM     22  C   LIG    1       29.823  17.486 185.697  0.00  0.00    +0.041 A 
ATOM     23  C   LIG    1       29.142  17.263 184.460  0.00  0.00    +0.003 A 
ATOM     24  C   LIG    1       29.793  17.270 183.195  0.00  0.00    +0.010 A 
ATOM     25  C   LIG    1       29.094  17.014 182.039  0.00  0.00    +0.001 A 
ATOM     26  C   LIG    1       27.711  16.753 182.089  0.00  0.00    +0.001 A 
ATOM     27  C   LIG    1       27.049  16.759 183.294  0.00  0.00    +0.008 A 
ATOM     28  C   LIG    1       27.744  17.021 184.501  0.00  0.00    -0.016 A 
ATOM     29  C   LIG    1       27.067  17.047 185.748  0.00  0.00    +0.008 A 
ATOM     30  C   LIG    1       27.750  17.286 186.917  0.00  0.00    +0.002 A 
ATOM     31  C   LIG    1       29.140  17.502 186.899  0.00  0.00    +0.024 A 
ENDBRANCH  19  22
ENDBRANCH  17  18
ENDBRANCH   1  17
TORSDOF 7
