REMARK VINA RESULT:      -7.2      4.188     10.590
REMARK  Name = ZINC000022624335
REMARK                            x       y       z     vdW  Elec       q    Type
REMARK                         _______ _______ _______ _____ _____    ______ ____
ROOT
ATOM      1  C   LIG    1       32.921  18.611 185.496  0.00  0.00    +0.121 A 
ATOM      2  N   LIG    1       33.985  17.883 185.862  0.00  0.00    -0.238 NA
ATOM      3  C   LIG    1       35.123  18.512 186.159  0.00  0.00    +0.136 A 
ATOM      4  C   LIG    1       35.236  19.906 186.103  0.00  0.00    +0.052 A 
ATOM      5  C   LIG    1       34.133  20.676 185.737  0.00  0.00    +0.028 A 
ATOM      6  C   LIG    1       32.960  20.011 185.433  0.00  0.00    +0.045 A 
ENDROOT
BRANCH   1  11
ATOM      7  C   LIG    1       27.783  17.598 184.658  0.00  0.00    +0.221 C 
ATOM      8  N   LIG    1       29.063  17.146 184.728  0.00  0.00    -0.298 N 
ATOM      9  C   LIG    1       29.800  16.628 185.908  0.00  0.00    +0.126 C 
ATOM     10  C   LIG    1       30.827  17.713 186.319  0.00  0.00    +0.125 C 
ATOM     11  N   LIG    1       31.743  17.928 185.170  0.00  0.00    -0.312 N 
ATOM     12  C   LIG    1       31.004  18.412 183.961  0.00  0.00    +0.125 C 
ATOM     13  C   LIG    1       29.985  17.319 183.567  0.00  0.00    +0.126 C 
ATOM     14  O   LIG    1       27.396  18.104 183.606  0.00  0.00    -0.275 OA
BRANCH   7  15
ATOM     15  C   LIG    1       26.761  17.509 185.853  0.00  0.00    +0.041 C 
ATOM     16  C   LIG    1       25.540  18.436 185.598  0.00  0.00    +0.020 C 
ATOM     17  C   LIG    1       26.107  16.110 185.968  0.00  0.00    +0.020 C 
BRANCH  15  19
ATOM     18  C   LIG    1       26.816  17.160 188.442  0.00  0.00    +0.005 C 
ATOM     19  C   LIG    1       27.350  17.940 187.228  0.00  0.00    +0.012 C 
ENDBRANCH  15  19
ENDBRANCH   7  15
ENDBRANCH   1  11
BRANCH   4  20
ATOM     20  N   LIG    1       36.475  20.514 186.464  0.00  0.00    -0.280 N 
ATOM     21  H   LIG    1       36.868  21.211 185.821  0.00  0.00    +0.155 HD
ATOM     22  C   LIG    1       37.164  20.329 187.644  0.00  0.00    +0.248 C 
ATOM     23  O   LIG    1       36.635  19.686 188.540  0.00  0.00    -0.270 OA
BRANCH  22  24
ATOM     24  C   LIG    1       38.484  20.953 187.781  0.00  0.00    +0.037 A 
ATOM     25  C   LIG    1       39.378  21.027 186.693  0.00  0.00    +0.016 A 
ATOM     26  C   LIG    1       40.621  21.635 186.842  0.00  0.00    +0.039 A 
ATOM     27  C   LIG    1       40.966  22.160 188.080  0.00  0.00    +0.123 A 
ATOM     28  F   LIG    1       42.177  22.755 188.224  0.00  0.00    -0.205 F 
ATOM     29  C   LIG    1       40.117  22.092 189.176  0.00  0.00    +0.039 A 
ATOM     30  C   LIG    1       38.876  21.484 189.023  0.00  0.00    +0.016 A 
ENDBRANCH  22  24
ENDBRANCH   4  20
TORSDOF 5
