REMARK VINA RESULT:      -6.6      5.528      7.520
REMARK  Name = ZINC000006082796
REMARK                            x       y       z     vdW  Elec       q    Type
REMARK                         _______ _______ _______ _____ _____    ______ ____
ROOT
ATOM      1  N   LIG    1       22.242  46.982 184.519  0.00  0.00    -0.306 N 
ENDROOT
BRANCH   1   2
ATOM      2  C   LIG    1       22.577  48.320 184.664  0.00  0.00    +0.133 A 
ATOM      3  C   LIG    1       21.729  49.374 184.248  0.00  0.00    +0.051 A 
ATOM      4  C   LIG    1       20.418  49.406 183.679  0.00  0.00    -0.025 A 
ATOM      5  C   LIG    1       19.556  48.187 183.399  0.00  0.00    +0.037 C 
ATOM      6  C   LIG    1       18.109  48.649 183.151  0.00  0.00    +0.005 C 
ATOM      7  C   LIG    1       18.054  49.831 182.169  0.00  0.00    +0.005 C 
ATOM      8  C   LIG    1       18.679  51.089 182.794  0.00  0.00    +0.043 C 
ATOM      9  C   LIG    1       20.007  50.676 183.395  0.00  0.00    -0.004 A 
ATOM     10  S   LIG    1       21.177  51.875 183.839  0.00  0.00    -0.073 S 
ATOM     11  C   LIG    1       22.249  50.648 184.415  0.00  0.00    +0.114 A 
ATOM     12  N   LIG    1       23.457  50.889 184.980  0.00  0.00    -0.228 NA
ATOM     13  C   LIG    1       24.149  49.846 185.366  0.00  0.00    +0.224 A 
ATOM     14  N   LIG    1       23.745  48.562 185.226  0.00  0.00    -0.220 NA
ENDBRANCH   1   2
BRANCH   1  16
ATOM     15  C   LIG    1       21.700  45.275 182.931  0.00  0.00    +0.024 C 
ATOM     16  C   LIG    1       22.723  46.365 183.261  0.00  0.00    +0.104 C 
ENDBRANCH   1  16
BRANCH   1  17
ATOM     17  C   LIG    1       22.626  46.178 185.737  0.00  0.00    +0.202 C 
BRANCH  17  18
ATOM     18  C   LIG    1       21.642  46.416 186.889  0.00  0.00    +0.231 C 
ATOM     19  N   LIG    1       21.915  45.831 188.053  0.00  0.00    -0.309 N 
ATOM     20  H   LIG    1       22.819  45.388 188.123  0.00  0.00    +0.149 HD
ATOM     21  O   LIG    1       20.644  47.120 186.767  0.00  0.00    -0.274 OA
BRANCH  19  22
ATOM     22  C   LIG    1       21.115  46.005 189.248  0.00  0.00    +0.146 C 
BRANCH  22  23
ATOM     23  C   LIG    1       21.802  45.123 190.262  0.00  0.00    +0.007 A 
ATOM     24  S   LIG    1       23.168  44.155 189.818  0.00  0.00    -0.100 S 
ATOM     25  C   LIG    1       23.294  43.537 191.427  0.00  0.00    +0.045 A 
ATOM     26  C   LIG    1       22.330  44.052 192.244  0.00  0.00    +0.008 A 
ATOM     27  C   LIG    1       21.479  44.953 191.580  0.00  0.00    +0.013 A 
ENDBRANCH  22  23
ENDBRANCH  19  22
ENDBRANCH  17  18
ENDBRANCH   1  17
TORSDOF 6
