REMARK VINA RESULT:      -6.3      2.191      3.945
REMARK  Name = ZINC000006082796
REMARK                            x       y       z     vdW  Elec       q    Type
REMARK                         _______ _______ _______ _____ _____    ______ ____
ROOT
ATOM      1  N   LIG    1       23.391  41.661 180.554  0.00  0.00    -0.306 N 
ENDROOT
BRANCH   1   2
ATOM      2  C   LIG    1       23.731  42.566 179.560  0.00  0.00    +0.133 A 
ATOM      3  C   LIG    1       23.374  43.935 179.611  0.00  0.00    +0.051 A 
ATOM      4  C   LIG    1       22.697  44.731 180.586  0.00  0.00    -0.025 A 
ATOM      5  C   LIG    1       22.190  44.229 181.927  0.00  0.00    +0.037 C 
ATOM      6  C   LIG    1       21.871  45.441 182.821  0.00  0.00    +0.005 C 
ATOM      7  C   LIG    1       21.043  46.495 182.069  0.00  0.00    +0.005 C 
ATOM      8  C   LIG    1       21.873  47.145 180.950  0.00  0.00    +0.043 C 
ATOM      9  C   LIG    1       22.536  46.024 180.178  0.00  0.00    -0.004 A 
ATOM     10  S   LIG    1       23.230  46.327 178.618  0.00  0.00    -0.073 S 
ATOM     11  C   LIG    1       23.745  44.680 178.503  0.00  0.00    +0.114 A 
ATOM     12  N   LIG    1       24.442  44.167 177.461  0.00  0.00    -0.228 NA
ATOM     13  C   LIG    1       24.757  42.896 177.527  0.00  0.00    +0.224 A 
ATOM     14  N   LIG    1       24.423  42.076 178.550  0.00  0.00    -0.220 NA
ENDBRANCH   1   2
BRANCH   1  16
ATOM     15  C   LIG    1       22.515  39.458 180.230  0.00  0.00    +0.024 C 
ATOM     16  C   LIG    1       22.122  40.935 180.313  0.00  0.00    +0.104 C 
ENDBRANCH   1  16
BRANCH   1  17
ATOM     17  C   LIG    1       24.535  40.730 180.873  0.00  0.00    +0.202 C 
BRANCH  17  18
ATOM     18  C   LIG    1       25.503  41.365 181.878  0.00  0.00    +0.231 C 
ATOM     19  N   LIG    1       25.024  42.335 182.654  0.00  0.00    -0.309 N 
ATOM     20  H   LIG    1       24.027  42.483 182.611  0.00  0.00    +0.149 HD
ATOM     21  O   LIG    1       26.670  41.002 181.988  0.00  0.00    -0.274 OA
BRANCH  19  22
ATOM     22  C   LIG    1       25.795  42.992 183.688  0.00  0.00    +0.146 C 
BRANCH  22  23
ATOM     23  C   LIG    1       25.176  42.480 184.967  0.00  0.00    +0.007 A 
ATOM     24  S   LIG    1       23.660  43.100 185.531  0.00  0.00    -0.100 S 
ATOM     25  C   LIG    1       23.712  42.061 186.910  0.00  0.00    +0.045 A 
ATOM     26  C   LIG    1       24.839  41.292 186.923  0.00  0.00    +0.008 A 
ATOM     27  C   LIG    1       25.674  41.533 185.818  0.00  0.00    +0.013 A 
ENDBRANCH  22  23
ENDBRANCH  19  22
ENDBRANCH  17  18
ENDBRANCH   1  17
TORSDOF 6
