REMARK VINA RESULT:      -7.4     11.539     13.901
REMARK  Name = ZINC000049420917
REMARK                            x       y       z     vdW  Elec       q    Type
REMARK                         _______ _______ _______ _____ _____    ______ ____
ROOT
ATOM      1  N   LIG    1       25.955  15.501 197.834  0.00  0.00    -0.205 N 
ATOM      2  C   LIG    1       25.657  15.614 196.453  0.00  0.00    +0.160 A 
ATOM      3  N   LIG    1       24.376  15.812 196.108  0.00  0.00    -0.238 NA
ATOM      4  C   LIG    1       24.058  15.913 194.819  0.00  0.00    +0.113 A 
ATOM      5  C   LIG    1       25.021  15.829 193.816  0.00  0.00    +0.022 A 
ATOM      6  C   LIG    1       26.354  15.632 194.159  0.00  0.00    +0.034 A 
ATOM      7  C   LIG    1       26.668  15.514 195.507  0.00  0.00    +0.149 A 
ATOM      8  S   LIG    1       28.291  15.330 196.167  0.00  0.00    +0.082 S 
ATOM      9  O   LIG    1       28.513  13.974 196.498  0.00  0.00    -0.150 OA
ATOM     10  O   LIG    1       29.222  15.932 195.284  0.00  0.00    -0.150 OA
ATOM     11  N   LIG    1       28.217  16.205 197.551  0.00  0.00    -0.150 N 
ATOM     12  C   LIG    1       27.228  15.750 198.366  0.00  0.00    +0.334 C 
ATOM     13  O   LIG    1       27.450  15.573 199.560  0.00  0.00    -0.250 OA
ENDROOT
BRANCH   1  18
ATOM     14  C   LIG    1       21.847  13.797 201.419  0.00  0.00    +0.044 C 
ATOM     15  C   LIG    1       22.930  14.248 200.461  0.00  0.00    -0.050 A 
ATOM     16  C   LIG    1       23.236  15.605 200.339  0.00  0.00    +0.005 A 
ATOM     17  C   LIG    1       24.238  16.025 199.470  0.00  0.00    +0.024 A 
ATOM     18  C   LIG    1       24.933  15.075 198.725  0.00  0.00    +0.044 A 
ATOM     19  C   LIG    1       24.643  13.716 198.839  0.00  0.00    +0.024 A 
ATOM     20  C   LIG    1       23.639  13.307 199.712  0.00  0.00    +0.005 A 
ENDBRANCH   1  18
BRANCH  11  21
ATOM     21  C   LIG    1       29.526  16.520 198.118  0.00  0.00    +0.171 C 
BRANCH  21  22
ATOM     22  C   LIG    1       29.426  17.996 198.451  0.00  0.00    -0.028 A 
ATOM     23  C   LIG    1       28.856  18.881 197.530  0.00  0.00    +0.008 A 
ATOM     24  C   LIG    1       28.756  20.237 197.831  0.00  0.00    +0.038 A 
ATOM     25  C   LIG    1       29.225  20.685 199.057  0.00  0.00    +0.123 A 
ATOM     26  F   LIG    1       29.130  22.003 199.353  0.00  0.00    -0.205 F 
ATOM     27  C   LIG    1       29.789  19.827 199.992  0.00  0.00    +0.038 A 
ATOM     28  C   LIG    1       29.887  18.473 199.683  0.00  0.00    +0.008 A 
ENDBRANCH  21  22
ENDBRANCH  11  21
TORSDOF 3
