REMARK VINA RESULT:      -7.5      3.222      6.222
REMARK  Name = ligand.pdb
REMARK  7 active torsions:
REMARK  status: ('A' for Active; 'I' for Inactive)
REMARK    1  A    between atoms: C1_1  and  C6_8
REMARK    2  A    between atoms: C2_3  and  C3_5
REMARK    3  A    between atoms: C2_3  and  C11_13
REMARK    4  A    between atoms: C3_5  and  C4_6
REMARK    5  A    between atoms: C3_5  and  C5_7
REMARK    6  A    between atoms: C6_8  and  C7_9
REMARK    7  A    between atoms: C6_8  and  C8_10
REMARK                            x       y       z     vdW  Elec       q    Type
REMARK                         _______ _______ _______ _____ _____    ______ ____
ROOT
ATOM      1  C8  IBP A 701      24.915  35.044 199.196  0.00  0.00    +0.000 A 
ATOM      2  C9  IBP A 701      26.201  34.486 199.388  0.00  0.00    +0.000 A 
ATOM      3  C10 IBP A 701      26.562  33.874 200.615  0.00  0.00    +0.000 A 
ATOM      4  C11 IBP A 701      25.649  33.795 201.700  0.00  0.00    +0.000 A 
ATOM      5  C12 IBP A 701      24.368  34.349 201.509  0.00  0.00    +0.000 A 
ATOM      6  C13 IBP A 701      24.005  34.962 200.280  0.00  0.00    +0.000 A 
ENDROOT
BRANCH   1   7
ATOM      7  C6  IBP A 701      24.550  35.718 197.852  0.00  0.00    +0.000 C 
ATOM      8  C7  IBP A 701      23.766  34.807 196.903  0.00  0.00    +0.000 C 
BRANCH   7   9
ATOM      9  C1  IBP A 701      25.829  36.222 197.198  0.00  0.00    +0.000 C 
ATOM     10  O1  IBP A 701      26.292  35.439 196.260  0.00  0.00    +0.000 OA
ATOM     11  O2  IBP A 701      26.399  37.257 197.525  0.00  0.00    +0.000 OA
ENDBRANCH   7   9
ENDBRANCH   1   7
BRANCH   4  12
ATOM     12  C2  IBP A 701      26.053  33.142 203.017  0.00  0.00    +0.000 C 
BRANCH  12  13
ATOM     13  C3  IBP A 701      27.414  32.433 203.004  0.00  0.00    +0.000 C 
ATOM     14  C4  IBP A 701      27.217  30.923 203.039  0.00  0.00    +0.000 C 
ATOM     15  C5  IBP A 701      28.264  32.855 204.180  0.00  0.00    +0.000 C 
ENDBRANCH  12  13
ENDBRANCH   4  12
TORSDOF 4
