REMARK VINA RESULT:      -6.7     15.980     18.100
REMARK  Name = ZINC000000538627
REMARK                            x       y       z     vdW  Elec       q    Type
REMARK                         _______ _______ _______ _____ _____    ______ ____
ROOT
ATOM      1  C   LIG    1       16.405  37.788 209.411  0.00  0.00    +0.166 C 
ENDROOT
BRANCH   1   2
ATOM      2  C   LIG    1       16.347  36.408 208.718  0.00  0.00    -0.007 A 
ATOM      3  C   LIG    1       15.405  35.415 209.025  0.00  0.00    +0.007 A 
ATOM      4  C   LIG    1       15.422  34.192 208.360  0.00  0.00    +0.000 A 
ATOM      5  C   LIG    1       16.377  33.940 207.381  0.00  0.00    +0.000 A 
ATOM      6  C   LIG    1       17.316  34.913 207.067  0.00  0.00    +0.000 A 
ATOM      7  C   LIG    1       17.300  36.136 207.731  0.00  0.00    +0.007 A 
ENDBRANCH   1   2
BRANCH   1   8
ATOM      8  C   LIG    1       15.864  37.638 210.851  0.00  0.00    -0.007 A 
ATOM      9  C   LIG    1       16.340  36.631 211.700  0.00  0.00    +0.007 A 
ATOM     10  C   LIG    1       15.828  36.483 212.985  0.00  0.00    +0.000 A 
ATOM     11  C   LIG    1       14.834  37.339 213.443  0.00  0.00    +0.000 A 
ATOM     12  C   LIG    1       14.355  38.347 212.615  0.00  0.00    +0.000 A 
ATOM     13  C   LIG    1       14.866  38.496 211.330  0.00  0.00    +0.007 A 
ENDBRANCH   1   8
BRANCH   1  15
ATOM     14  C   LIG    1       14.222  38.179 208.165  0.00  0.00    +0.195 C 
ATOM     15  O   LIG    1       15.499  38.694 208.658  0.00  0.00    -0.363 OA
ENDBRANCH   1  15
BRANCH   1  16
ATOM     16  C   LIG    1       17.840  38.389 209.449  0.00  0.00    +0.325 C 
BRANCH  16  17
ATOM     17  C   LIG    1       17.928  39.495 208.412  0.00  0.00    +0.350 C 
ATOM     18  O   LIG    1       18.576  39.385 207.376  0.00  0.00    -0.247 OA
BRANCH  17  19
ATOM     19  O   LIG    1       17.321  40.695 208.643  0.00  0.00    -0.478 OA
ATOM     20  H   LIG    1       16.478  40.747 208.186  0.00  0.00    +0.295 HD
ENDBRANCH  17  19
ENDBRANCH  16  17
BRANCH  16  21
ATOM     21  O   LIG    1       18.115  38.976 210.781  0.00  0.00    -0.444 OA
BRANCH  21  22
ATOM     22  C   LIG    1       19.356  38.977 211.307  0.00  0.00    +0.319 A 
ATOM     23  N   LIG    1       20.400  38.971 210.481  0.00  0.00    -0.200 NA
ATOM     24  C   LIG    1       21.610  38.990 211.009  0.00  0.00    +0.045 A 
ATOM     25  C   LIG    1       22.796  38.986 210.076  0.00  0.00    +0.066 C 
ATOM     26  C   LIG    1       21.760  38.997 212.388  0.00  0.00    +0.046 A 
ATOM     27  C   LIG    1       20.626  38.992 213.189  0.00  0.00    +0.045 A 
ATOM     28  C   LIG    1       20.717  39.012 214.695  0.00  0.00    +0.066 C 
ATOM     29  N   LIG    1       19.429  38.985 212.631  0.00  0.00    -0.200 NA
ENDBRANCH  21  22
ENDBRANCH  16  21
ENDBRANCH   1  16
TORSDOF 8
