REMARK VINA RESULT:      -6.3      3.700      5.577
REMARK  Name = ZINC000000623134
REMARK                            x       y       z     vdW  Elec       q    Type
REMARK                         _______ _______ _______ _____ _____    ______ ____
ROOT
ATOM      1  N   LIG    1       23.187  45.731 182.864  0.00  0.00    -0.299 N 
ATOM      2  H   LIG    1       23.774  45.804 182.025  0.00  0.00    +0.150 HD
ENDROOT
BRANCH   1   5
ATOM      3  C   LIG    1       23.453  43.741 185.127  0.00  0.00    +0.409 C 
ATOM      4  N   LIG    1       23.579  43.631 183.773  0.00  0.00    -0.212 N 
ATOM      5  C   LIG    1       22.658  44.399 182.941  0.00  0.00    +0.235 C 
ATOM      6  S   LIG    1       22.907  43.781 181.224  0.00  0.00    -0.086 S 
ATOM      7  C   LIG    1       24.241  42.802 181.742  0.00  0.00    +0.006 C 
ATOM      8  C   LIG    1       25.161  41.905 180.978  0.00  0.00    +0.044 C 
ATOM      9  C   LIG    1       26.257  41.653 182.069  0.00  0.00    +0.011 C 
ATOM     10  C   LIG    1       25.615  41.930 183.468  0.00  0.00    +0.052 C 
ATOM     11  C   LIG    1       24.481  42.809 183.042  0.00  0.00    +0.029 C 
ATOM     12  O   LIG    1       22.590  44.445 185.649  0.00  0.00    -0.226 OA
BRANCH   3  13
ATOM     13  O   LIG    1       24.319  43.022 185.867  0.00  0.00    -0.450 OA
BRANCH  13  15
ATOM     14  C   LIG    1       24.989  41.079 187.007  0.00  0.00    +0.048 C 
ATOM     15  C   LIG    1       23.837  42.065 186.831  0.00  0.00    +0.230 C 
ENDBRANCH  13  15
ENDBRANCH   3  13
ENDBRANCH   1   5
BRANCH   1  16
ATOM     16  C   LIG    1       22.292  46.760 182.943  0.00  0.00    +0.136 C 
ATOM     17  S   LIG    1       21.702  47.523 181.573  0.00  0.00    -0.018 S 
BRANCH  16  18
ATOM     18  N   LIG    1       22.010  47.099 184.257  0.00  0.00    -0.297 N 
ATOM     19  H   LIG    1       22.697  46.752 184.952  0.00  0.00    +0.154 HD
BRANCH  18  20
ATOM     20  C   LIG    1       21.097  48.076 184.695  0.00  0.00    +0.033 A 
ATOM     21  C   LIG    1       21.553  49.393 184.784  0.00  0.00    +0.027 A 
ATOM     22  C   LIG    1       20.696  50.390 185.236  0.00  0.00    +0.047 A 
ATOM     23  C   LIG    1       19.388  50.060 185.601  0.00  0.00    +0.120 A 
ATOM     24  C   LIG    1       18.934  48.744 185.521  0.00  0.00    +0.047 A 
ATOM     25  C   LIG    1       19.790  47.746 185.070  0.00  0.00    +0.027 A 
BRANCH  23  26
ATOM     26  O   LIG    1       18.492  51.007 186.056  0.00  0.00    -0.495 OA
ATOM     27  C   LIG    1       17.489  50.775 187.070  0.00  0.00    +0.277 C 
ENDBRANCH  23  26
ENDBRANCH  18  20
ENDBRANCH  16  18
ENDBRANCH   1  16
TORSDOF 7
