REMARK VINA RESULT:     -10.1     17.955     19.650
REMARK  Name = ZINC000049410302
REMARK                            x       y       z     vdW  Elec       q    Type
REMARK                         _______ _______ _______ _____ _____    ______ ____
ROOT
ATOM      1  C   LIG    1       27.803  29.655 204.352  0.00  0.00    +0.314 A 
ATOM      2  O   LIG    1       28.102  30.623 205.201  0.00  0.00    -0.328 OA
ATOM      3  N   LIG    1       28.109  31.759 204.544  0.00  0.00    -0.054 NA
ATOM      4  C   LIG    1       27.816  31.457 203.320  0.00  0.00    +0.224 A 
ATOM      5  N   LIG    1       27.616  30.128 203.165  0.00  0.00    -0.182 NA
ENDROOT
BRANCH   4   6
ATOM      6  C   LIG    1       27.718  32.443 202.239  0.00  0.00    +0.153 A 
ATOM      7  N   LIG    1       28.767  33.147 201.727  0.00  0.00    -0.126 NA
ATOM      8  N   LIG    1       28.304  33.927 200.785  0.00  0.00    -0.060 NA
ATOM      9  N   LIG    1       26.973  33.731 200.687  0.00  0.00    -0.219 N 
ATOM     10  C   LIG    1       26.593  32.815 201.583  0.00  0.00    +0.148 A 
BRANCH   9  11
ATOM     11  C   LIG    1       26.124  34.426 199.750  0.00  0.00    +0.068 A 
ATOM     12  C   LIG    1       26.585  34.680 198.457  0.00  0.00    +0.047 A 
ATOM     13  C   LIG    1       25.747  35.347 197.565  0.00  0.00    +0.043 A 
ATOM     14 CL   LIG    1       26.291  35.672 195.953  0.00  0.00    -0.083 Cl
ATOM     15  C   LIG    1       24.470  35.756 197.964  0.00  0.00    +0.020 A 
ATOM     16  C   LIG    1       24.026  35.499 199.260  0.00  0.00    +0.003 A 
ATOM     17  C   LIG    1       24.850  34.833 200.163  0.00  0.00    +0.028 A 
ENDBRANCH   9  11
ENDBRANCH   4   6
BRANCH   1  20
ATOM     18  N   LIG    1       28.706  27.408 204.344  0.00  0.00    -0.278 N 
ATOM     19  H   LIG    1       29.430  27.866 203.772  0.00  0.00    +0.155 HD
ATOM     20  C   LIG    1       27.725  28.268 204.808  0.00  0.00    +0.306 C 
ATOM     21  O   LIG    1       26.863  27.847 205.577  0.00  0.00    -0.265 OA
BRANCH  18  26
ATOM     22  C   LIG    1       29.583  21.891 205.542  0.00  0.00    +0.044 C 
ATOM     23  C   LIG    1       29.332  23.348 205.221  0.00  0.00    -0.050 A 
ATOM     24  C   LIG    1       30.131  24.341 205.788  0.00  0.00    +0.005 A 
ATOM     25  C   LIG    1       29.906  25.681 205.491  0.00  0.00    +0.023 A 
ATOM     26  C   LIG    1       28.875  26.031 204.619  0.00  0.00    +0.034 A 
ATOM     27  C   LIG    1       28.077  25.044 204.035  0.00  0.00    +0.023 A 
ATOM     28  C   LIG    1       28.309  23.707 204.341  0.00  0.00    +0.005 A 
ENDBRANCH  18  26
ENDBRANCH   1  20
TORSDOF 4
