REMARK VINA RESULT:      -7.4      3.349     10.103
REMARK  Name = ZINC000022625070
REMARK                            x       y       z     vdW  Elec       q    Type
REMARK                         _______ _______ _______ _____ _____    ______ ____
ROOT
ATOM      1  C   LIG    1       27.702  28.885 205.055  0.00  0.00    +0.171 A 
ATOM      2  C   LIG    1       28.289  27.621 204.977  0.00  0.00    +0.032 A 
ATOM      3  C   LIG    1       29.142  26.934 203.925  0.00  0.00    +0.046 C 
ATOM      4  C   LIG    1       30.081  25.926 204.644  0.00  0.00    +0.040 C 
ATOM      5  C   LIG    1       29.314  25.051 205.648  0.00  0.00    -0.036 A 
ATOM      6  C   LIG    1       28.263  25.607 206.397  0.00  0.00    +0.027 A 
ATOM      7  C   LIG    1       27.619  24.846 207.375  0.00  0.00    +0.057 A 
ATOM      8  C   LIG    1       28.016  23.526 207.584  0.00  0.00    +0.121 A 
ATOM      9  C   LIG    1       29.045  22.963 206.834  0.00  0.00    +0.046 A 
ATOM     10  C   LIG    1       29.695  23.729 205.871  0.00  0.00    +0.008 A 
ATOM     11  C   LIG    1       27.891  26.963 206.074  0.00  0.00    +0.171 A 
ATOM     12  O   LIG    1       27.104  27.784 206.780  0.00  0.00    -0.354 OA
ATOM     13  N   LIG    1       26.992  28.955 206.160  0.00  0.00    -0.073 NA
ENDROOT
BRANCH   1  16
ATOM     14  N   LIG    1       28.389  31.150 204.498  0.00  0.00    -0.307 N 
ATOM     15  H   LIG    1       28.626  31.204 205.497  0.00  0.00    +0.149 HD
ATOM     16  C   LIG    1       27.825  29.975 204.081  0.00  0.00    +0.266 C 
ATOM     17  O   LIG    1       27.447  29.908 202.913  0.00  0.00    -0.268 OA
BRANCH  14  18
ATOM     18  C   LIG    1       28.375  32.376 203.724  0.00  0.00    +0.070 C 
ATOM     19  C   LIG    1       29.643  33.138 204.107  0.00  0.00    +0.028 C 
BRANCH  18  20
ATOM     20  C   LIG    1       27.077  33.135 204.055  0.00  0.00    +0.023 C 
BRANCH  20  21
ATOM     21  C   LIG    1       26.012  33.171 202.937  0.00  0.00    +0.017 C 
BRANCH  21  22
ATOM     22  C   LIG    1       26.786  33.188 201.596  0.00  0.00    +0.084 C 
BRANCH  22  23
ATOM     23  N   LIG    1       26.133  34.124 200.643  0.00  0.00    -0.303 NA
BRANCH  23  25
ATOM     24  C   LIG    1       23.943  34.992 200.328  0.00  0.00    +0.020 C 
ATOM     25  C   LIG    1       25.138  35.013 201.284  0.00  0.00    +0.081 C 
ENDBRANCH  23  25
BRANCH  23  26
ATOM     26  C   LIG    1       27.088  34.840 199.775  0.00  0.00    +0.081 C 
ATOM     27  C   LIG    1       28.472  34.320 200.184  0.00  0.00    +0.020 C 
ENDBRANCH  23  26
ENDBRANCH  22  23
ENDBRANCH  21  22
ENDBRANCH  20  21
ENDBRANCH  18  20
ENDBRANCH  14  18
ENDBRANCH   1  16
BRANCH   8  28
ATOM     28  O   LIG    1       27.417  22.724 208.529  0.00  0.00    -0.495 OA
ATOM     29  C   LIG    1       27.549  21.286 208.602  0.00  0.00    +0.277 C 
ENDBRANCH   8  28
TORSDOF 9
