REMARK VINA RESULT:      -7.9     24.523     28.834
REMARK  Name = ZINC000000603759
REMARK                            x       y       z     vdW  Elec       q    Type
REMARK                         _______ _______ _______ _____ _____    ______ ____
ROOT
ATOM      1  C   LIG    1       24.068  41.979 211.875  0.00  0.00    +0.139 A 
ATOM      2  C   LIG    1       23.407  41.069 211.006  0.00  0.00    +0.050 A 
ATOM      3  C   LIG    1       23.343  39.671 210.863  0.00  0.00    +0.015 A 
ATOM      4  C   LIG    1       22.553  39.170 209.847  0.00  0.00    +0.020 A 
ATOM      5  C   LIG    1       21.843  40.046 208.992  0.00  0.00    +0.113 A 
ATOM      6  N   LIG    1       21.894  41.358 209.118  0.00  0.00    -0.236 NA
ATOM      7  C   LIG    1       22.671  41.830 210.127  0.00  0.00    +0.159 A 
ATOM      8  N   LIG    1       22.894  43.129 210.483  0.00  0.00    -0.241 N 
ATOM      9  N   LIG    1       23.746  43.226 211.541  0.00  0.00    -0.165 NA
ENDROOT
BRANCH   1  14
ATOM     10  C   LIG    1       25.407  41.489 215.229  0.00  0.00    +0.128 A 
ATOM     11  C   LIG    1       26.674  40.935 215.007  0.00  0.00    +0.040 A 
ATOM     12  C   LIG    1       27.026  40.752 213.679  0.00  0.00    +0.125 A 
ATOM     13  N   LIG    1       26.197  41.086 212.702  0.00  0.00    -0.234 NA
ATOM     14  C   LIG    1       24.975  41.616 212.979  0.00  0.00    +0.183 A 
ATOM     15  N   LIG    1       24.591  41.813 214.254  0.00  0.00    -0.211 NA
BRANCH  11  16
ATOM     16  C   LIG    1       27.575  40.564 216.089  0.00  0.00    -0.010 A 
ATOM     17  C   LIG    1       27.574  39.280 216.636  0.00  0.00    +0.028 A 
ATOM     18  C   LIG    1       28.449  38.959 217.666  0.00  0.00    +0.111 A 
ATOM     19  N   LIG    1       29.306  39.853 218.159  0.00  0.00    -0.263 NA
ATOM     20  C   LIG    1       29.332  41.087 217.658  0.00  0.00    +0.111 A 
ATOM     21  C   LIG    1       28.486  41.475 216.628  0.00  0.00    +0.028 A 
ENDBRANCH  11  16
BRANCH  10  22
ATOM     22  N   LIG    1       24.911  41.756 216.461  0.00  0.00    -0.343 N 
ATOM     23  H   LIG    1       23.928  41.514 216.634  0.00  0.00    +0.144 HD
ATOM     24  H   LIG    1       25.584  41.587 217.221  0.00  0.00    +0.144 HD
ENDBRANCH  10  22
ENDBRANCH   1  14
BRANCH   8  25
ATOM     25  C   LIG    1       22.296  44.293 209.834  0.00  0.00    +0.183 C 
BRANCH  25  26
ATOM     26  C   LIG    1       23.407  45.010 209.078  0.00  0.00    +0.009 A 
ATOM     27  C   LIG    1       23.876  46.256 209.493  0.00  0.00    +0.128 A 
ATOM     28  F   LIG    1       23.333  46.855 210.582  0.00  0.00    -0.205 F 
ATOM     29  C   LIG    1       24.885  46.936 208.823  0.00  0.00    +0.039 A 
ATOM     30  C   LIG    1       25.450  46.355 207.691  0.00  0.00    +0.003 A 
ATOM     31  C   LIG    1       24.996  45.113 207.250  0.00  0.00    +0.000 A 
ATOM     32  C   LIG    1       23.982  44.445 207.937  0.00  0.00    +0.008 A 
ENDBRANCH  25  26
ENDBRANCH   8  25
TORSDOF 5
