REMARK VINA RESULT:      -8.7     26.560     27.969
REMARK  Name = ZINC000000593415
REMARK                            x       y       z     vdW  Elec       q    Type
REMARK                         _______ _______ _______ _____ _____    ______ ____
ROOT
ATOM      1  C   LIG    1       30.356  17.840 184.284  0.00  0.00    -0.043 A 
ATOM      2  C   LIG    1       30.616  18.227 185.600  0.00  0.00    +0.006 A 
ATOM      3  C   LIG    1       31.915  18.487 186.024  0.00  0.00    +0.023 A 
ATOM      4  C   LIG    1       32.970  18.354 185.125  0.00  0.00    +0.034 A 
ATOM      5  C   LIG    1       32.730  17.980 183.803  0.00  0.00    +0.023 A 
ATOM      6  C   LIG    1       31.429  17.722 183.389  0.00  0.00    +0.006 A 
ENDROOT
BRANCH   4   7
ATOM      7  N   LIG    1       34.274  18.635 185.596  0.00  0.00    -0.282 N 
ATOM      8  H   LIG    1       34.890  17.832 185.755  0.00  0.00    +0.155 HD
ATOM      9  C   LIG    1       34.846  19.883 185.756  0.00  0.00    +0.248 C 
ATOM     10  O   LIG    1       34.235  20.870 185.370  0.00  0.00    -0.270 OA
BRANCH   9  11
ATOM     11  C   LIG    1       36.185  19.966 186.348  0.00  0.00    +0.042 A 
ATOM     12  C   LIG    1       37.311  19.404 185.715  0.00  0.00    +0.051 A 
ATOM     13  C   LIG    1       38.562  19.520 186.311  0.00  0.00    +0.127 A 
ATOM     14  F   LIG    1       39.628  18.981 185.685  0.00  0.00    -0.205 F 
ATOM     15  C   LIG    1       38.753  20.166 187.524  0.00  0.00    +0.076 A 
ATOM     16  C   LIG    1       37.632  20.701 188.140  0.00  0.00    +0.127 A 
ATOM     17  F   LIG    1       37.781  21.333 189.322  0.00  0.00    -0.205 F 
ATOM     18  C   LIG    1       36.362  20.614 187.582  0.00  0.00    +0.051 A 
ENDBRANCH   9  11
ENDBRANCH   4   7
BRANCH   1  19
ATOM     19  C   LIG    1       28.910  17.514 183.887  0.00  0.00    +0.031 C 
ATOM     20  C   LIG    1       28.798  17.142 182.397  0.00  0.00    +0.014 C 
BRANCH  19  21
ATOM     21  C   LIG    1       28.370  16.404 184.818  0.00  0.00    +0.113 C 
BRANCH  21  22
ATOM     22  N   LIG    1       27.323  16.987 185.649  0.00  0.00    -0.194 NA
ATOM     23  H   LIG    1       26.427  16.635 185.307  0.00  0.00    +0.148 HD
BRANCH  22  24
ATOM     24  S   LIG    1       27.474  16.836 187.266  0.00  0.00    +0.032 S 
ATOM     25  O   LIG    1       28.486  15.874 187.525  0.00  0.00    -0.158 OA
ATOM     26  O   LIG    1       27.654  18.128 187.831  0.00  0.00    -0.158 OA
BRANCH  24  28
ATOM     27  C   LIG    1       25.148  15.237 186.831  0.00  0.00    +0.033 C 
ATOM     28  C   LIG    1       25.886  16.176 187.822  0.00  0.00    +0.142 C 
ATOM     29  C   LIG    1       25.919  15.384 189.154  0.00  0.00    +0.033 C 
ENDBRANCH  24  28
ENDBRANCH  22  24
ENDBRANCH  21  22
ENDBRANCH  19  21
ENDBRANCH   1  19
TORSDOF 7
