REMARK VINA RESULT:      -7.5     28.594     30.137
REMARK  Name = ZINC000000622956
REMARK                            x       y       z     vdW  Elec       q    Type
REMARK                         _______ _______ _______ _____ _____    ______ ____
ROOT
ATOM      1  C   LIG    1       31.099  17.896 198.724  0.00  0.00    +0.271 C 
ATOM      2  N   LIG    1       31.522  17.922 197.345  0.00  0.00    -0.157 N 
ATOM      3  C   LIG    1       32.789  18.251 197.219  0.00  0.00    +0.250 C 
ATOM      4  C   LIG    1       33.547  18.331 195.902  0.00  0.00    +0.124 C 
ATOM      5  C   LIG    1       34.541  17.148 195.862  0.00  0.00    +0.012 C 
ATOM      6  C   LIG    1       35.776  17.475 196.722  0.00  0.00    +0.004 C 
ATOM      7  C   LIG    1       35.542  17.549 198.246  0.00  0.00    +0.045 C 
ATOM      8  C   LIG    1       34.742  18.818 198.600  0.00  0.00    +0.236 C 
ATOM      9  N   LIG    1       33.327  18.484 198.388  0.00  0.00    -0.258 N 
ATOM     10  C   LIG    1       32.381  18.271 199.504  0.00  0.00    +0.323 C 
ENDROOT
BRANCH   1  11
ATOM     11  C   LIG    1       29.972  18.902 198.987  0.00  0.00    +0.034 A 
ATOM     12  C   LIG    1       28.658  18.474 199.252  0.00  0.00    +0.060 A 
ATOM     13  C   LIG    1       27.683  19.431 199.493  0.00  0.00    +0.167 A 
ATOM     14  O   LIG    1       26.379  19.209 199.761  0.00  0.00    -0.453 OA
ATOM     15  C   LIG    1       25.767  20.548 199.955  0.00  0.00    +0.466 C 
ATOM     16  O   LIG    1       26.875  21.512 199.746  0.00  0.00    -0.453 OA
ATOM     17  C   LIG    1       27.971  20.770 199.486  0.00  0.00    +0.166 A 
ATOM     18  C   LIG    1       29.255  21.227 199.237  0.00  0.00    +0.050 A 
ATOM     19  C   LIG    1       30.255  20.285 198.990  0.00  0.00    +0.014 A 
ENDBRANCH   1  11
BRANCH   2  20
ATOM     20  C   LIG    1       30.686  17.543 196.267  0.00  0.00    +0.124 A 
ATOM     21  C   LIG    1       30.778  16.241 195.779  0.00  0.00    +0.050 A 
ATOM     22  C   LIG    1       29.964  15.857 194.717  0.00  0.00    +0.024 A 
ATOM     23  C   LIG    1       29.071  16.775 194.156  0.00  0.00    +0.041 A 
ATOM     24 CL   LIG    1       28.061  16.295 192.836  0.00  0.00    -0.084 Cl
ATOM     25  C   LIG    1       28.991  18.080 194.653  0.00  0.00    +0.024 A 
ATOM     26  C   LIG    1       29.803  18.470 195.715  0.00  0.00    +0.050 A 
ENDBRANCH   2  20
BRANCH   1  27
ATOM     27  O   LIG    1       30.706  16.558 199.002  0.00  0.00    -0.347 OA
ATOM     28  H   LIG    1       30.653  16.459 199.965  0.00  0.00    +0.215 HD
ENDBRANCH   1  27
TORSDOF 3
