REMARK VINA RESULT:      -9.3     28.994     30.184
REMARK  Name = ZINC000000603769
REMARK                            x       y       z     vdW  Elec       q    Type
REMARK                         _______ _______ _______ _____ _____    ______ ____
ROOT
ATOM      1  C   LIG    1       22.285  45.981 186.634  0.00  0.00    +0.139 A 
ATOM      2  N   LIG    1       22.060  47.252 186.224  0.00  0.00    -0.336 N 
ATOM      3  H   LIG    1       21.815  48.054 186.824  0.00  0.00    +0.167 HD
ATOM      4  C   LIG    1       22.209  47.326 184.894  0.00  0.00    +0.093 A 
ATOM      5  C   LIG    1       22.494  46.041 184.500  0.00  0.00    +0.099 A 
ATOM      6  N   LIG    1       22.560  45.229 185.591  0.00  0.00    -0.227 NA
ENDROOT
BRANCH   5   7
ATOM      7  C   LIG    1       22.678  45.556 183.139  0.00  0.00    +0.006 A 
ATOM      8  C   LIG    1       23.972  45.372 182.621  0.00  0.00    +0.059 A 
ATOM      9  C   LIG    1       24.113  44.927 181.316  0.00  0.00    +0.167 A 
ATOM     10  O   LIG    1       25.267  44.705 180.647  0.00  0.00    -0.453 OA
ATOM     11  C   LIG    1       24.876  44.236 179.298  0.00  0.00    +0.466 C 
ATOM     12  O   LIG    1       23.394  44.241 179.298  0.00  0.00    -0.453 OA
ATOM     13  C   LIG    1       23.022  44.655 180.528  0.00  0.00    +0.166 A 
ATOM     14  C   LIG    1       21.731  44.810 181.010  0.00  0.00    +0.050 A 
ATOM     15  C   LIG    1       21.565  45.257 182.322  0.00  0.00    +0.014 A 
ENDBRANCH   5   7
BRANCH   1  19
ATOM     16  C   LIG    1       22.135  44.775 190.749  0.00  0.00    +0.037 A 
ATOM     17  C   LIG    1       23.148  44.317 189.891  0.00  0.00    +0.014 A 
ATOM     18  C   LIG    1       23.183  44.714 188.561  0.00  0.00    +0.012 A 
ATOM     19  C   LIG    1       22.217  45.584 188.037  0.00  0.00    +0.017 A 
ATOM     20  C   LIG    1       21.208  46.048 188.898  0.00  0.00    +0.012 A 
ATOM     21  C   LIG    1       21.171  45.650 190.229  0.00  0.00    +0.014 A 
BRANCH  16  25
ATOM     22  N   LIG    1       21.558  45.186 193.104  0.00  0.00    -0.325 N 
ATOM     23  H   LIG    1       21.300  46.156 192.892  0.00  0.00    +0.145 HD
ATOM     24  H   LIG    1       21.589  44.854 194.076  0.00  0.00    +0.145 HD
ATOM     25  C   LIG    1       22.064  44.367 192.156  0.00  0.00    +0.242 C 
ATOM     26  O   LIG    1       22.455  43.293 192.580  0.00  0.00    -0.270 OA
ENDBRANCH  16  25
ENDBRANCH   1  19
BRANCH   4  27
ATOM     27  C   LIG    1       22.084  48.598 184.211  0.00  0.00    +0.089 A 
ATOM     28  N   LIG    1       21.049  48.744 183.360  0.00  0.00    -0.253 NA
ATOM     29  C   LIG    1       20.881  49.888 182.702  0.00  0.00    +0.111 A 
ATOM     30  C   LIG    1       21.746  50.965 182.867  0.00  0.00    +0.020 A 
ATOM     31  C   LIG    1       22.812  50.855 183.747  0.00  0.00    +0.004 A 
ATOM     32  C   LIG    1       22.974  49.658 184.427  0.00  0.00    +0.030 A 
ENDBRANCH   4  27
TORSDOF 4
