REMARK VINA RESULT:      -9.3      0.000      0.000
REMARK  Name = ZINC000006086009
REMARK                            x       y       z     vdW  Elec       q    Type
REMARK                         _______ _______ _______ _____ _____    ______ ____
ROOT
ATOM      1  N   LIG    1       22.426  44.653 184.856  0.00  0.00    -0.286 NA
ATOM      2  C   LIG    1       22.149  44.136 183.492  0.00  0.00    +0.106 C 
ENDROOT
BRANCH   1   3
ATOM      3  C   LIG    1       22.604  46.165 184.836  0.00  0.00    +0.140 C 
ATOM      4  C   LIG    1       23.364  46.491 183.534  0.00  0.00    +0.034 C 
BRANCH   3   7
ATOM      5  N   LIG    1       21.242  48.072 185.621  0.00  0.00    -0.281 N 
ATOM      6  H   LIG    1       22.093  48.267 186.164  0.00  0.00    +0.155 HD
ATOM      7  C   LIG    1       21.268  46.949 184.833  0.00  0.00    +0.234 C 
ATOM      8  O   LIG    1       20.264  46.586 184.246  0.00  0.00    -0.274 OA
BRANCH   5  10
ATOM      9  C   LIG    1       19.979  50.095 185.348  0.00  0.00    +0.141 A 
ATOM     10  C   LIG    1       20.123  48.859 185.992  0.00  0.00    +0.076 A 
ATOM     11  C   LIG    1       19.188  48.446 186.942  0.00  0.00    +0.027 A 
ATOM     12  C   LIG    1       18.117  49.281 187.255  0.00  0.00    +0.002 A 
ATOM     13  C   LIG    1       17.976  50.515 186.621  0.00  0.00    +0.004 A 
ATOM     14  C   LIG    1       18.904  50.927 185.664  0.00  0.00    +0.047 A 
BRANCH   9  16
ATOM     15  C   LIG    1       20.723  50.426 182.968  0.00  0.00    +0.277 C 
ATOM     16  O   LIG    1       20.936  50.460 184.399  0.00  0.00    -0.493 OA
ENDBRANCH   9  16
ENDBRANCH   5  10
ENDBRANCH   3   7
ENDBRANCH   1   3
BRANCH   1  17
ATOM     17  C   LIG    1       23.608  43.897 185.470  0.00  0.00    +0.181 C 
BRANCH  17  18
ATOM     18  C   LIG    1       23.241  43.388 186.860  0.00  0.00    +0.231 C 
ATOM     19  N   LIG    1       23.282  44.336 187.848  0.00  0.00    -0.284 N 
ATOM     20  H   LIG    1       23.489  45.276 187.477  0.00  0.00    +0.155 HD
ATOM     21  O   LIG    1       22.960  42.227 187.084  0.00  0.00    -0.274 OA
BRANCH  19  22
ATOM     22  C   LIG    1       23.101  44.222 189.248  0.00  0.00    +0.041 A 
ATOM     23  C   LIG    1       21.961  44.871 189.820  0.00  0.00    +0.003 A 
ATOM     24  C   LIG    1       21.045  45.659 189.065  0.00  0.00    +0.010 A 
ATOM     25  C   LIG    1       19.959  46.251 189.666  0.00  0.00    +0.001 A 
ATOM     26  C   LIG    1       19.737  46.091 191.048  0.00  0.00    +0.001 A 
ATOM     27  C   LIG    1       20.608  45.347 191.806  0.00  0.00    +0.008 A 
ATOM     28  C   LIG    1       21.739  44.727 191.214  0.00  0.00    -0.016 A 
ATOM     29  C   LIG    1       22.651  43.971 191.995  0.00  0.00    +0.008 A 
ATOM     30  C   LIG    1       23.743  43.369 191.415  0.00  0.00    +0.002 A 
ATOM     31  C   LIG    1       23.972  43.487 190.033  0.00  0.00    +0.024 A 
ENDBRANCH  19  22
ENDBRANCH  17  18
ENDBRANCH   1  17
TORSDOF 7
