REMARK VINA RESULT:      -6.9      2.075      3.508
REMARK  Name = ZINC000006087402
REMARK                            x       y       z     vdW  Elec       q    Type
REMARK                         _______ _______ _______ _____ _____    ______ ____
ROOT
ATOM      1  C   LIG    1       23.962  47.199 183.269  0.00  0.00    +0.214 C 
ENDROOT
BRANCH   1   7
ATOM      2  C   LIG    1       21.100  52.079 181.910  0.00  0.00    +0.010 C 
ATOM      3  C   LIG    1       21.696  51.219 183.051  0.00  0.00    +0.018 C 
ATOM      4  C   LIG    1       21.207  49.733 182.991  0.00  0.00    +0.115 C 
ATOM      5  C   LIG    1       22.128  48.817 183.807  0.00  0.00    +0.247 C 
ATOM      6  O   LIG    1       22.314  48.737 185.009  0.00  0.00    -0.273 OA
ATOM      7  N   LIG    1       22.793  48.017 182.932  0.00  0.00    -0.215 N 
ATOM      8  C   LIG    1       22.403  48.283 181.650  0.00  0.00    +0.310 C 
ATOM      9  O   LIG    1       22.888  47.785 180.650  0.00  0.00    -0.252 OA
ATOM     10  N   LIG    1       21.411  49.193 181.653  0.00  0.00    -0.285 N 
ATOM     11  H   LIG    1       21.222  49.721 180.795  0.00  0.00    +0.151 HD
ATOM     12  C   LIG    1       19.709  49.561 183.358  0.00  0.00    +0.035 C 
ATOM     13  C   LIG    1       19.431  50.193 184.734  0.00  0.00    +0.003 C 
ATOM     14  C   LIG    1       19.853  51.667 184.785  0.00  0.00    +0.000 C 
ATOM     15  C   LIG    1       21.339  51.822 184.427  0.00  0.00    +0.006 C 
ENDBRANCH   1   7
BRANCH   1  16
ATOM     16  C   LIG    1       23.544  45.728 183.228  0.00  0.00    +0.238 C 
ATOM     17  N   LIG    1       24.405  44.798 182.665  0.00  0.00    -0.267 N 
ATOM     18  O   LIG    1       22.470  45.339 183.672  0.00  0.00    -0.274 OA
BRANCH  17  19
ATOM     19  C   LIG    1       25.585  45.176 181.973  0.00  0.00    +0.010 C 
ATOM     20  C   LIG    1       26.819  45.374 182.836  0.00  0.00    +0.051 C 
ATOM     21  C   LIG    1       27.838  46.201 182.024  0.00  0.00    +0.006 C 
ATOM     22  C   LIG    1       28.041  45.492 180.669  0.00  0.00    +0.004 C 
ATOM     23  C   LIG    1       26.773  45.719 179.815  0.00  0.00    +0.029 C 
ATOM     24  C   LIG    1       25.564  45.303 180.632  0.00  0.00    -0.008 C 
ENDBRANCH  17  19
BRANCH  17  25
ATOM     25  C   LIG    1       24.035  43.368 182.685  0.00  0.00    +0.187 C 
BRANCH  25  26
ATOM     26  C   LIG    1       24.554  42.831 184.003  0.00  0.00    +0.122 A 
ATOM     27  O   LIG    1       23.730  42.732 185.083  0.00  0.00    -0.466 OA
ATOM     28  C   LIG    1       24.468  42.237 186.109  0.00  0.00    +0.195 A 
ATOM     29  C   LIG    1       25.735  42.023 185.693  0.00  0.00    +0.041 A 
ATOM     30  C   LIG    1       25.791  42.402 184.348  0.00  0.00    +0.046 A 
ENDBRANCH  25  26
ENDBRANCH  17  25
ENDBRANCH   1  16
TORSDOF 5
