REMARK VINA RESULT:      -9.8      3.615     10.778
REMARK  Name = ZINC000049410302
REMARK                            x       y       z     vdW  Elec       q    Type
REMARK                         _______ _______ _______ _____ _____    ______ ____
ROOT
ATOM      1  C   LIG    1       27.393  16.968 189.174  0.00  0.00    +0.314 A 
ATOM      2  O   LIG    1       26.611  16.027 189.675  0.00  0.00    -0.328 OA
ATOM      3  N   LIG    1       26.902  15.884 190.946  0.00  0.00    -0.054 NA
ATOM      4  C   LIG    1       27.848  16.733 191.187  0.00  0.00    +0.224 A 
ATOM      5  N   LIG    1       28.183  17.438 190.081  0.00  0.00    -0.182 NA
ENDROOT
BRANCH   4   6
ATOM      6  C   LIG    1       28.475  16.904 192.502  0.00  0.00    +0.153 A 
ATOM      7  N   LIG    1       29.153  18.016 192.904  0.00  0.00    -0.126 NA
ATOM      8  N   LIG    1       29.570  17.809 194.126  0.00  0.00    -0.060 NA
ATOM      9  N   LIG    1       29.167  16.581 194.511  0.00  0.00    -0.219 N 
ATOM     10  C   LIG    1       28.488  16.005 193.515  0.00  0.00    +0.148 A 
BRANCH   9  11
ATOM     11  C   LIG    1       29.450  16.010 195.806  0.00  0.00    +0.068 A 
ATOM     12  C   LIG    1       29.229  16.768 196.957  0.00  0.00    +0.047 A 
ATOM     13  C   LIG    1       29.502  16.194 198.199  0.00  0.00    +0.043 A 
ATOM     14 CL   LIG    1       29.234  17.109 199.645  0.00  0.00    -0.083 Cl
ATOM     15  C   LIG    1       29.992  14.888 198.283  0.00  0.00    +0.020 A 
ATOM     16  C   LIG    1       30.212  14.146 197.124  0.00  0.00    +0.003 A 
ATOM     17  C   LIG    1       29.943  14.702 195.876  0.00  0.00    +0.028 A 
ENDBRANCH   9  11
ENDBRANCH   4   6
BRANCH   1  20
ATOM     18  N   LIG    1       27.943  16.522 186.858  0.00  0.00    -0.278 N 
ATOM     19  H   LIG    1       28.378  15.690 187.282  0.00  0.00    +0.155 HD
ATOM     20  C   LIG    1       27.292  17.342 187.764  0.00  0.00    +0.306 C 
ATOM     21  O   LIG    1       26.658  18.314 187.357  0.00  0.00    -0.265 OA
BRANCH  18  26
ATOM     22  C   LIG    1       28.024  16.917 181.159  0.00  0.00    +0.044 C 
ATOM     23  C   LIG    1       28.019  16.824 182.669  0.00  0.00    -0.050 A 
ATOM     24  C   LIG    1       26.832  16.557 183.353  0.00  0.00    +0.005 A 
ATOM     25  C   LIG    1       26.824  16.465 184.741  0.00  0.00    +0.023 A 
ATOM     26  C   LIG    1       28.012  16.642 185.450  0.00  0.00    +0.034 A 
ATOM     27  C   LIG    1       29.208  16.897 184.775  0.00  0.00    +0.023 A 
ATOM     28  C   LIG    1       29.204  16.989 183.387  0.00  0.00    +0.005 A 
ENDBRANCH  18  26
ENDBRANCH   1  20
TORSDOF 4
