REMARK VINA RESULT:      -6.3      4.548      6.946
REMARK  Name = ZINC000000622877
REMARK                            x       y       z     vdW  Elec       q    Type
REMARK                         _______ _______ _______ _____ _____    ______ ____
ROOT
ATOM      1  O   LIG    1       25.814  25.987 211.691  0.00  0.00    -0.274 OA
ATOM      2  C   LIG    1       27.018  26.096 211.863  0.00  0.00    +0.235 C 
ATOM      3  N   LIG    1       27.672  25.228 212.682  0.00  0.00    -0.219 N 
ATOM      4  H   LIG    1       28.705  25.188 212.695  0.00  0.00    +0.176 HD
ENDROOT
BRANCH   3   5
ATOM      5  N   LIG    1       26.964  24.134 213.375  0.00  0.00    -0.217 N 
ATOM      6  C   LIG    1       26.825  22.851 212.821  0.00  0.00    +0.079 A 
ATOM      7  C   LIG    1       26.299  21.997 213.736  0.00  0.00    +0.078 A 
ATOM      8  S   LIG    1       25.934  22.756 215.252  0.00  0.00    -0.033 S 
ATOM      9  C   LIG    1       26.513  24.285 214.667  0.00  0.00    +0.308 A 
ATOM     10  O   LIG    1       26.518  25.372 215.283  0.00  0.00    -0.258 OA
BRANCH   6  11
ATOM     11  C   LIG    1       27.210  22.557 211.448  0.00  0.00    +0.001 A 
ATOM     12  C   LIG    1       28.556  22.393 211.096  0.00  0.00    +0.010 A 
ATOM     13  C   LIG    1       28.919  22.121 209.781  0.00  0.00    +0.001 A 
ATOM     14  C   LIG    1       27.943  22.007 208.797  0.00  0.00    +0.000 A 
ATOM     15  C   LIG    1       26.601  22.165 209.133  0.00  0.00    +0.001 A 
ATOM     16  C   LIG    1       26.239  22.437 210.447  0.00  0.00    +0.010 A 
ENDBRANCH   6  11
ENDBRANCH   3   5
BRANCH   2  17
ATOM     17  C   LIG    1       27.832  27.177 211.178  0.00  0.00    +0.132 C 
BRANCH  17  18
ATOM     18  C   LIG    1       28.425  26.588 209.905  0.00  0.00    -0.039 A 
ATOM     19  C   LIG    1       29.807  26.567 209.713  0.00  0.00    +0.005 A 
ATOM     20  C   LIG    1       30.346  26.012 208.556  0.00  0.00    +0.015 A 
ATOM     21  C   LIG    1       29.509  25.474 207.582  0.00  0.00    +0.018 A 
ATOM     22 BR   LIG    1       30.245  24.717 206.012  0.00  0.00    -0.050 Br
ATOM     23  C   LIG    1       28.130  25.496 207.769  0.00  0.00    +0.015 A 
ATOM     24  C   LIG    1       27.590  26.053 208.924  0.00  0.00    +0.005 A 
ENDBRANCH  17  18
ENDBRANCH   2  17
TORSDOF 4
