REMARK VINA RESULT:      -6.9     26.959     28.796
REMARK  Name = ZINC000000622958
REMARK                            x       y       z     vdW  Elec       q    Type
REMARK                         _______ _______ _______ _____ _____    ______ ____
ROOT
ATOM      1  C   LIG    1       24.690  43.826 208.887  0.00  0.00    +0.271 C 
ATOM      2  N   LIG    1       25.557  44.179 209.983  0.00  0.00    -0.157 N 
ATOM      3  C   LIG    1       25.865  45.457 209.989  0.00  0.00    +0.250 C 
ATOM      4  C   LIG    1       26.765  46.138 211.011  0.00  0.00    +0.124 C 
ATOM      5  C   LIG    1       25.869  47.032 211.899  0.00  0.00    +0.012 C 
ATOM      6  C   LIG    1       25.537  48.339 211.154  0.00  0.00    +0.004 C 
ATOM      7  C   LIG    1       24.611  48.206 209.927  0.00  0.00    +0.045 C 
ATOM      8  C   LIG    1       25.361  47.526 208.765  0.00  0.00    +0.236 C 
ATOM      9  N   LIG    1       25.267  46.078 209.005  0.00  0.00    -0.258 N 
ATOM     10  C   LIG    1       24.374  45.192 208.226  0.00  0.00    +0.323 C 
ENDROOT
BRANCH   1  11
ATOM     11  C   LIG    1       23.421  43.122 209.381  0.00  0.00    +0.034 A 
ATOM     12  C   LIG    1       23.268  41.741 209.165  0.00  0.00    +0.060 A 
ATOM     13  C   LIG    1       22.114  41.118 209.609  0.00  0.00    +0.167 A 
ATOM     14  O   LIG    1       21.798  39.812 209.483  0.00  0.00    -0.453 OA
ATOM     15  C   LIG    1       20.464  39.652 210.117  0.00  0.00    +0.466 C 
ATOM     16  O   LIG    1       20.100  41.005 210.598  0.00  0.00    -0.453 OA
ATOM     17  C   LIG    1       21.126  41.814 210.256  0.00  0.00    +0.166 A 
ATOM     18  C   LIG    1       21.243  43.174 210.491  0.00  0.00    +0.050 A 
ATOM     19  C   LIG    1       22.397  43.827 210.048  0.00  0.00    +0.014 A 
ENDBRANCH   1  11
BRANCH   2  20
ATOM     20  C   LIG    1       25.961  43.244 210.972  0.00  0.00    +0.124 A 
ATOM     21  C   LIG    1       27.167  42.559 210.821  0.00  0.00    +0.050 A 
ATOM     22  C   LIG    1       27.559  41.654 211.803  0.00  0.00    +0.024 A 
ATOM     23  C   LIG    1       26.750  41.443 212.923  0.00  0.00    +0.041 A 
ATOM     24 CL   LIG    1       27.243  40.320 214.143  0.00  0.00    -0.084 Cl
ATOM     25  C   LIG    1       25.542  42.137 213.064  0.00  0.00    +0.024 A 
ATOM     26  C   LIG    1       25.144  43.042 212.085  0.00  0.00    +0.050 A 
ENDBRANCH   2  20
BRANCH   1  27
ATOM     27  O   LIG    1       25.470  43.023 208.012  0.00  0.00    -0.347 OA
ATOM     28  H   LIG    1       25.705  42.211 208.485  0.00  0.00    +0.215 HD
ENDBRANCH   1  27
TORSDOF 3
