REMARK VINA RESULT:      -6.9     27.544     30.624
REMARK  Name = ZINC000000622958
REMARK                            x       y       z     vdW  Elec       q    Type
REMARK                         _______ _______ _______ _____ _____    ______ ____
ROOT
ATOM      1  C   LIG    1       22.482  39.490 211.317  0.00  0.00    +0.271 C 
ATOM      2  N   LIG    1       21.719  40.388 210.487  0.00  0.00    -0.157 N 
ATOM      3  C   LIG    1       20.493  39.962 210.278  0.00  0.00    +0.250 C 
ATOM      4  C   LIG    1       19.445  40.679 209.441  0.00  0.00    +0.124 C 
ATOM      5  C   LIG    1       18.375  41.237 210.409  0.00  0.00    +0.012 C 
ATOM      6  C   LIG    1       17.421  40.105 210.837  0.00  0.00    +0.004 C 
ATOM      7  C   LIG    1       18.025  39.011 211.742  0.00  0.00    +0.045 C 
ATOM      8  C   LIG    1       18.996  38.128 210.934  0.00  0.00    +0.236 C 
ATOM      9  N   LIG    1       20.283  38.839 210.917  0.00  0.00    -0.258 N 
ATOM     10  C   LIG    1       21.443  38.419 211.734  0.00  0.00    +0.323 C 
ENDROOT
BRANCH   1  11
ATOM     11  C   LIG    1       23.075  40.216 212.529  0.00  0.00    +0.034 A 
ATOM     12  C   LIG    1       24.468  40.380 212.625  0.00  0.00    +0.060 A 
ATOM     13  C   LIG    1       24.991  41.031 213.730  0.00  0.00    +0.167 A 
ATOM     14  O   LIG    1       26.294  41.270 213.987  0.00  0.00    -0.453 OA
ATOM     15  C   LIG    1       26.327  41.991 215.286  0.00  0.00    +0.466 C 
ATOM     16  O   LIG    1       24.908  42.115 215.695  0.00  0.00    -0.453 OA
ATOM     17  C   LIG    1       24.184  41.521 214.723  0.00  0.00    +0.166 A 
ATOM     18  C   LIG    1       22.807  41.382 214.662  0.00  0.00    +0.050 A 
ATOM     19  C   LIG    1       22.254  40.725 213.559  0.00  0.00    +0.014 A 
ENDBRANCH   1  11
BRANCH   2  20
ATOM     20  C   LIG    1       22.237  41.624 210.017  0.00  0.00    +0.124 A 
ATOM     21  C   LIG    1       21.694  42.821 210.483  0.00  0.00    +0.050 A 
ATOM     22  C   LIG    1       22.219  44.026 210.025  0.00  0.00    +0.024 A 
ATOM     23  C   LIG    1       23.277  44.026 209.112  0.00  0.00    +0.041 A 
ATOM     24 CL   LIG    1       23.928  45.526 208.547  0.00  0.00    -0.084 Cl
ATOM     25  C   LIG    1       23.814  42.818 208.652  0.00  0.00    +0.024 A 
ATOM     26  C   LIG    1       23.293  41.610 209.105  0.00  0.00    +0.050 A 
ENDBRANCH   2  20
BRANCH   1  27
ATOM     27  O   LIG    1       23.470  38.917 210.471  0.00  0.00    -0.347 OA
ATOM     28  H   LIG    1       24.319  38.958 210.936  0.00  0.00    +0.215 HD
ENDBRANCH   1  27
TORSDOF 3
