REMARK VINA RESULT:      -7.3     30.578     35.240
REMARK  Name = ZINC000006087397
REMARK                            x       y       z     vdW  Elec       q    Type
REMARK                         _______ _______ _______ _____ _____    ______ ____
ROOT
ATOM      1  C   LIG    1       29.287  22.009 206.015  0.00  0.00    +0.214 C 
ENDROOT
BRANCH   1   7
ATOM      2  C   LIG    1       28.577  18.590 209.366  0.00  0.00    +0.010 C 
ATOM      3  C   LIG    1       28.590  17.669 208.126  0.00  0.00    +0.018 C 
ATOM      4  C   LIG    1       29.269  18.354 206.895  0.00  0.00    +0.115 C 
ATOM      5  C   LIG    1       28.571  19.653 206.508  0.00  0.00    +0.247 C 
ATOM      6  O   LIG    1       27.402  19.858 206.236  0.00  0.00    -0.273 OA
ATOM      7  N   LIG    1       29.506  20.642 206.503  0.00  0.00    -0.215 N 
ATOM      8  C   LIG    1       30.724  20.147 206.891  0.00  0.00    +0.310 C 
ATOM      9  O   LIG    1       31.758  20.784 206.967  0.00  0.00    -0.252 OA
ATOM     10  N   LIG    1       30.610  18.838 207.194  0.00  0.00    -0.285 N 
ATOM     11  H   LIG    1       31.449  18.252 207.249  0.00  0.00    +0.151 HD
ATOM     12  C   LIG    1       29.310  17.402 205.673  0.00  0.00    +0.035 C 
ATOM     13  C   LIG    1       30.041  16.100 206.056  0.00  0.00    +0.003 C 
ATOM     14  C   LIG    1       29.378  15.418 207.260  0.00  0.00    +0.000 C 
ATOM     15  C   LIG    1       29.333  16.362 208.469  0.00  0.00    +0.006 C 
ENDBRANCH   1   7
BRANCH   1  16
ATOM     16  C   LIG    1       29.112  22.907 207.244  0.00  0.00    +0.238 C 
ATOM     17  N   LIG    1       29.123  24.306 207.161  0.00  0.00    -0.267 N 
ATOM     18  O   LIG    1       28.986  22.391 208.341  0.00  0.00    -0.274 OA
BRANCH  17  19
ATOM     19  C   LIG    1       28.894  25.145 208.299  0.00  0.00    +0.010 C 
ATOM     20  C   LIG    1       27.513  25.062 208.934  0.00  0.00    +0.051 C 
ATOM     21  C   LIG    1       27.273  26.371 209.716  0.00  0.00    +0.006 C 
ATOM     22  C   LIG    1       28.446  26.535 210.702  0.00  0.00    +0.004 C 
ATOM     23  C   LIG    1       29.703  26.929 209.896  0.00  0.00    +0.029 C 
ATOM     24  C   LIG    1       29.874  25.957 208.742  0.00  0.00    -0.008 C 
ENDBRANCH  17  19
BRANCH  17  25
ATOM     25  C   LIG    1       29.338  24.997 205.873  0.00  0.00    +0.187 C 
BRANCH  25  26
ATOM     26  C   LIG    1       27.974  25.515 205.455  0.00  0.00    +0.122 A 
ATOM     27  O   LIG    1       27.059  24.686 204.882  0.00  0.00    -0.466 OA
ATOM     28  C   LIG    1       25.949  25.422 204.627  0.00  0.00    +0.195 A 
ATOM     29  C   LIG    1       26.150  26.697 205.030  0.00  0.00    +0.041 A 
ATOM     30  C   LIG    1       27.443  26.755 205.559  0.00  0.00    +0.046 A 
ENDBRANCH  25  26
ENDBRANCH  17  25
ENDBRANCH   1  16
TORSDOF 5
