REMARK VINA RESULT:      -9.5     26.761     28.192
REMARK  Name = ZINC000006083766
REMARK                            x       y       z     vdW  Elec       q    Type
REMARK                         _______ _______ _______ _____ _____    ______ ____
ROOT
ATOM      1  O   LIG    1       22.925  44.981 187.085  0.00  0.00    -0.468 OA
ENDROOT
BRANCH   1   2
ATOM      2  C   LIG    1       21.958  45.722 187.683  0.00  0.00    +0.227 A 
ATOM      3  C   LIG    1       21.716  45.575 189.060  0.00  0.00    +0.073 A 
ATOM      4  C   LIG    1       22.312  44.747 190.054  0.00  0.00    -0.023 A 
ATOM      5  C   LIG    1       23.439  43.757 189.794  0.00  0.00    +0.037 C 
ATOM      6  C   LIG    1       24.027  43.321 191.149  0.00  0.00    +0.005 C 
ATOM      7  C   LIG    1       22.925  42.954 192.158  0.00  0.00    +0.005 C 
ATOM      8  C   LIG    1       22.108  44.194 192.558  0.00  0.00    +0.043 C 
ATOM      9  C   LIG    1       21.730  44.909 191.278  0.00  0.00    -0.004 A 
ATOM     10  S   LIG    1       20.462  46.094 191.265  0.00  0.00    -0.073 S 
ATOM     11  C   LIG    1       20.700  46.365 189.574  0.00  0.00    +0.116 A 
ATOM     12  N   LIG    1       19.991  47.232 188.812  0.00  0.00    -0.228 NA
ATOM     13  C   LIG    1       20.295  47.301 187.539  0.00  0.00    +0.226 A 
ATOM     14  N   LIG    1       21.268  46.562 186.942  0.00  0.00    -0.201 NA
ENDBRANCH   1   2
BRANCH   1  15
ATOM     15  C   LIG    1       22.772  44.418 185.750  0.00  0.00    +0.310 C 
BRANCH  15  17
ATOM     16  O   LIG    1       23.537  42.251 186.339  0.00  0.00    -0.288 OA
ATOM     17  C   LIG    1       23.699  43.214 185.613  0.00  0.00    +0.200 C 
BRANCH  17  18
ATOM     18  C   LIG    1       24.740  43.198 184.585  0.00  0.00    +0.025 A 
ATOM     19  C   LIG    1       24.855  44.232 183.635  0.00  0.00    +0.061 A 
ATOM     20  C   LIG    1       25.856  44.182 182.676  0.00  0.00    +0.163 A 
ATOM     21  O   LIG    1       25.975  45.213 181.768  0.00  0.00    -0.485 OA
ATOM     22  C   LIG    1       27.224  45.327 181.020  0.00  0.00    +0.270 C 
ATOM     23  C   LIG    1       27.558  43.924 180.487  0.00  0.00    +0.270 C 
ATOM     24  O   LIG    1       27.708  43.052 181.648  0.00  0.00    -0.485 OA
ATOM     25  C   LIG    1       26.745  43.104 182.627  0.00  0.00    +0.162 A 
ATOM     26  C   LIG    1       26.655  42.079 183.560  0.00  0.00    +0.050 A 
ATOM     27  C   LIG    1       25.657  42.127 184.531  0.00  0.00    +0.015 A 
ENDBRANCH  17  18
ENDBRANCH  15  17
ENDBRANCH   1  15
TORSDOF 4
