REMARK VINA RESULT:      -7.1      4.926      9.330
REMARK  Name = ZINC000000538144
REMARK                            x       y       z     vdW  Elec       q    Type
REMARK                         _______ _______ _______ _____ _____    ______ ____
ROOT
ATOM      1  C   LIG    1       25.797  42.656 181.651  0.00  0.00    +0.163 A 
ATOM      2  C   LIG    1       25.232  43.101 182.889  0.00  0.00    +0.162 A 
ATOM      3  C   LIG    1       24.935  44.439 183.088  0.00  0.00    +0.059 A 
ATOM      4  C   LIG    1       25.183  45.364 182.057  0.00  0.00    +0.007 A 
ATOM      5  C   LIG    1       24.985  46.760 181.931  0.00  0.00    -0.018 A 
ATOM      6  C   LIG    1       25.402  47.136 180.691  0.00  0.00    +0.017 A 
ATOM      7  C   LIG    1       25.422  48.499 180.035  0.00  0.00    +0.063 C 
ATOM      8  N   LIG    1       25.869  46.011 180.040  0.00  0.00    -0.358 N 
ATOM      9  H   LIG    1       26.258  45.990 179.085  0.00  0.00    +0.166 HD
ATOM     10  C   LIG    1       25.734  44.910 180.865  0.00  0.00    +0.051 A 
ATOM     11  C   LIG    1       26.053  43.565 180.631  0.00  0.00    +0.075 A 
ENDROOT
BRANCH   1  13
ATOM     12  C   LIG    1       25.155  40.270 181.101  0.00  0.00    +0.277 C 
ATOM     13  O   LIG    1       26.095  41.307 181.461  0.00  0.00    -0.491 OA
ENDBRANCH   1  13
BRANCH   2  14
ATOM     14  O   LIG    1       24.936  42.267 183.969  0.00  0.00    -0.491 OA
ATOM     15  C   LIG    1       25.840  41.757 184.973  0.00  0.00    +0.277 C 
ENDBRANCH   2  14
BRANCH   5  16
ATOM     16  C   LIG    1       24.391  47.652 183.001  0.00  0.00    +0.053 C 
BRANCH  16  17
ATOM     17  C   LIG    1       22.869  47.536 182.827  0.00  0.00    +0.089 C 
BRANCH  17  18
ATOM     18  N   LIG    1       22.364  48.884 182.448  0.00  0.00    -0.299 NA
ATOM     19  C   LIG    1       22.595  49.943 183.489  0.00  0.00    +0.103 C 
ATOM     20  C   LIG    1       21.718  49.700 184.750  0.00  0.00    +0.120 C 
ATOM     21  N   LIG    1       20.296  49.657 184.327  0.00  0.00    -0.327 N 
ATOM     22  C   LIG    1       20.051  48.569 183.349  0.00  0.00    +0.120 C 
ATOM     23  C   LIG    1       20.913  48.859 182.091  0.00  0.00    +0.103 C 
BRANCH  21  24
ATOM     24  C   LIG    1       19.384  49.811 185.395  0.00  0.00    +0.030 A 
ATOM     25  C   LIG    1       18.686  51.007 185.612  0.00  0.00    +0.023 A 
ATOM     26  C   LIG    1       17.794  51.104 186.674  0.00  0.00    +0.002 A 
ATOM     27  C   LIG    1       17.592  50.019 187.524  0.00  0.00    +0.000 A 
ATOM     28  C   LIG    1       18.288  48.832 187.311  0.00  0.00    +0.002 A 
ATOM     29  C   LIG    1       19.185  48.727 186.254  0.00  0.00    +0.023 A 
ENDBRANCH  21  24
ENDBRANCH  17  18
ENDBRANCH  16  17
ENDBRANCH   5  16
TORSDOF 6
