REMARK VINA RESULT:      -6.6     24.618     27.854
REMARK  Name = ZINC000006083858
REMARK                            x       y       z     vdW  Elec       q    Type
REMARK                         _______ _______ _______ _____ _____    ______ ____
ROOT
ATOM      1  C   LIG    1       23.615  42.338 211.001  0.00  0.00    +0.257 A 
ATOM      2  C   LIG    1       22.294  42.804 210.604  0.00  0.00    +0.185 A 
ATOM      3  N   LIG    1       22.126  43.743 209.706  0.00  0.00    -0.225 NA
ATOM      4  C   LIG    1       23.275  44.250 209.144  0.00  0.00    +0.092 A 
ATOM      5  C   LIG    1       23.176  45.258 208.164  0.00  0.00    +0.030 A 
ATOM      6  C   LIG    1       24.310  45.787 207.581  0.00  0.00    +0.002 A 
ATOM      7  C   LIG    1       25.583  45.324 207.957  0.00  0.00    +0.002 A 
ATOM      8  C   LIG    1       25.706  44.336 208.914  0.00  0.00    +0.030 A 
ATOM      9  C   LIG    1       24.564  43.786 209.528  0.00  0.00    +0.093 A 
ATOM     10  N   LIG    1       24.723  42.810 210.495  0.00  0.00    -0.208 NA
ENDROOT
BRANCH   2  11
ATOM     11  N   LIG    1       21.139  42.291 211.212  0.00  0.00    -0.311 N 
ATOM     12  C   LIG    1       20.749  43.085 212.397  0.00  0.00    +0.131 C 
BRANCH  11  13
ATOM     13  C   LIG    1       20.045  41.801 210.315  0.00  0.00    +0.075 C 
ATOM     14  C   LIG    1       18.874  41.176 211.128  0.00  0.00    +0.022 C 
ATOM     15  C   LIG    1       19.354  39.941 211.920  0.00  0.00    +0.002 C 
ATOM     16  C   LIG    1       19.933  38.874 210.985  0.00  0.00    +0.000 C 
ATOM     17  C   LIG    1       21.074  39.476 210.158  0.00  0.00    +0.002 C 
ATOM     18  C   LIG    1       20.586  40.700 209.357  0.00  0.00    +0.022 C 
ENDBRANCH  11  13
ENDBRANCH   2  11
BRANCH   1  19
ATOM     19  O   LIG    1       23.719  41.362 211.971  0.00  0.00    -0.465 OA
BRANCH  19  20
ATOM     20  C   LIG    1       24.044  39.953 211.712  0.00  0.00    +0.326 C 
BRANCH  20  23
ATOM     21  N   LIG    1       26.151  40.670 212.696  0.00  0.00    -0.310 N 
ATOM     22  H   LIG    1       25.835  41.581 212.392  0.00  0.00    +0.149 HD
ATOM     23  C   LIG    1       25.334  39.644 212.456  0.00  0.00    +0.251 C 
ATOM     24  O   LIG    1       25.605  38.511 212.842  0.00  0.00    -0.272 OA
BRANCH  21  25
ATOM     25  C   LIG    1       27.403  40.607 213.424  0.00  0.00    +0.073 C 
ATOM     26  C   LIG    1       27.132  41.084 214.851  0.00  0.00    +0.028 C 
BRANCH  25  28
ATOM     27  C   LIG    1       27.915  42.145 211.465  0.00  0.00    +0.009 C 
ATOM     28  C   LIG    1       28.495  41.432 212.699  0.00  0.00    +0.003 C 
ATOM     29  C   LIG    1       29.204  42.478 213.583  0.00  0.00    +0.009 C 
ENDBRANCH  25  28
ENDBRANCH  21  25
ENDBRANCH  20  23
ENDBRANCH  19  20
ENDBRANCH   1  19
TORSDOF 7
