MODEL 1
REMARK VINA RESULT:      -7.7      0.000      0.000
REMARK  Name = ZINC000078751741
REMARK                            x       y       z     vdW  Elec       q    Type
REMARK                         _______ _______ _______ _____ _____    ______ ____
ROOT
ATOM      1  S   LIG    1       27.000  43.078 181.695  0.00  0.00    +0.073 S 
ATOM      2  O   LIG    1       27.862  43.664 180.735  0.00  0.00    -0.150 OA
ATOM      3  O   LIG    1       27.497  41.975 182.433  0.00  0.00    -0.150 OA
ENDROOT
BRANCH   1   6
ATOM      4  C   LIG    1       25.081  44.781 179.532  0.00  0.00    +0.053 C 
ATOM      5  C   LIG    1       24.766  43.372 179.987  0.00  0.00    +0.014 A 
ATOM      6  C   LIG    1       25.477  42.591 180.871  0.00  0.00    +0.119 A 
ATOM      7  C   LIG    1       24.875  41.335 181.064  0.00  0.00    +0.051 A 
ATOM      8  C   LIG    1       23.729  41.146 180.325  0.00  0.00    +0.098 A 
ATOM      9  S   LIG    1       23.370  42.557 179.386  0.00  0.00    -0.085 S 
BRANCH   8  10
ATOM     10  C   LIG    1       22.896  39.961 180.282  0.00  0.00    +0.344 C 
ATOM     11  O   LIG    1       21.811  39.892 179.743  0.00  0.00    -0.245 OA
BRANCH  10  12
ATOM     12  O   LIG    1       23.338  38.857 180.873  0.00  0.00    -0.477 OA
ATOM     13  H   LIG    1       22.905  38.822 181.742  0.00  0.00    +0.295 HD
ENDBRANCH  10  12
ENDBRANCH   8  10
ENDBRANCH   1   6
BRANCH   1  14
ATOM     14  N   LIG    1       26.549  44.249 182.772  0.00  0.00    -0.213 N 
ATOM     15  H   LIG    1       26.170  44.937 182.109  0.00  0.00    +0.174 HD
BRANCH  14  16
ATOM     16  C   LIG    1       25.546  43.836 183.659  0.00  0.00    +0.084 A 
ATOM     17  C   LIG    1       24.246  44.336 183.553  0.00  0.00    +0.146 A 
ATOM     18  F   LIG    1       23.961  45.254 182.604  0.00  0.00    -0.204 F 
ATOM     19  C   LIG    1       23.237  43.911 184.403  0.00  0.00    +0.041 A 
ATOM     20  C   LIG    1       23.533  42.972 185.392  0.00  0.00    +0.015 A 
ATOM     21  C   LIG    1       24.839  42.467 185.535  0.00  0.00    +0.057 A 
ATOM     22  C   LIG    1       25.847  42.924 184.673  0.00  0.00    +0.039 A 
BRANCH  21  23
ATOM     23  C   LIG    1       25.183  41.447 186.631  0.00  0.00    +0.417 C 
ATOM     24  F   LIG    1       25.893  40.424 186.128  0.00  0.00    -0.166 F 
ATOM     25  F   LIG    1       24.046  40.974 187.162  0.00  0.00    -0.166 F 
ATOM     26  F   LIG    1       25.904  42.044 187.601  0.00  0.00    -0.166 F 
ENDBRANCH  21  23
ENDBRANCH  14  16
ENDBRANCH   1  14
TORSDOF 6
ENDMDL
MODEL 2
REMARK VINA RESULT:      -7.2      3.256      4.798
REMARK  Name = ZINC000078751741
REMARK                            x       y       z     vdW  Elec       q    Type
REMARK                         _______ _______ _______ _____ _____    ______ ____
ROOT
ATOM      1  S   LIG    1       23.001  44.578 184.336  0.00  0.00    +0.073 S 
ATOM      2  O   LIG    1       21.801  44.729 183.598  0.00  0.00    -0.150 OA
ATOM      3  O   LIG    1       23.144  45.348 185.517  0.00  0.00    -0.150 OA
ENDROOT
BRANCH   1   6
ATOM      4  C   LIG    1       23.880  47.429 182.800  0.00  0.00    +0.053 C 
ATOM      5  C   LIG    1       24.664  46.141 182.667  0.00  0.00    +0.014 A 
ATOM      6  C   LIG    1       24.388  44.921 183.244  0.00  0.00    +0.119 A 
ATOM      7  C   LIG    1       25.334  43.944 182.884  0.00  0.00    +0.051 A 
ATOM      8  C   LIG    1       26.332  44.411 182.059  0.00  0.00    +0.098 A 
ATOM      9  S   LIG    1       26.090  46.088 181.697  0.00  0.00    -0.085 S 
BRANCH   8  10
ATOM     10  C   LIG    1       27.460  43.667 181.536  0.00  0.00    +0.344 C 
ATOM     11  O   LIG    1       27.900  42.642 182.014  0.00  0.00    -0.245 OA
BRANCH  10  12
ATOM     12  O   LIG    1       28.073  44.127 180.452  0.00  0.00    -0.477 OA
ATOM     13  H   LIG    1       28.543  44.932 180.726  0.00  0.00    +0.295 HD
ENDBRANCH  10  12
ENDBRANCH   8  10
ENDBRANCH   1   6
BRANCH   1  14
ATOM     14  N   LIG    1       23.162  42.983 184.747  0.00  0.00    -0.213 N 
ATOM     15  H   LIG    1       23.786  42.686 183.986  0.00  0.00    +0.174 HD
BRANCH  14  16
ATOM     16  C   LIG    1       23.789  42.786 185.984  0.00  0.00    +0.084 A 
ATOM     17  C   LIG    1       24.977  42.056 186.077  0.00  0.00    +0.146 A 
ATOM     18  F   LIG    1       25.509  41.506 184.964  0.00  0.00    -0.204 F 
ATOM     19  C   LIG    1       25.625  41.880 187.289  0.00  0.00    +0.041 A 
ATOM     20  C   LIG    1       25.069  42.437 188.442  0.00  0.00    +0.015 A 
ATOM     21  C   LIG    1       23.863  43.160 188.382  0.00  0.00    +0.057 A 
ATOM     22  C   LIG    1       23.218  43.310 187.145  0.00  0.00    +0.039 A 
BRANCH  21  23
ATOM     23  C   LIG    1       23.231  43.763 189.646  0.00  0.00    +0.417 C 
ATOM     24  F   LIG    1       23.957  43.459 190.735  0.00  0.00    -0.166 F 
ATOM     25  F   LIG    1       21.992  43.274 189.792  0.00  0.00    -0.166 F 
ATOM     26  F   LIG    1       23.163  45.104 189.527  0.00  0.00    -0.166 F 
ENDBRANCH  21  23
ENDBRANCH  14  16
ENDBRANCH   1  14
TORSDOF 6
ENDMDL
MODEL 3
REMARK VINA RESULT:      -7.1      2.667      3.529
REMARK  Name = ZINC000078751741
REMARK                            x       y       z     vdW  Elec       q    Type
REMARK                         _______ _______ _______ _____ _____    ______ ____
ROOT
ATOM      1  S   LIG    1       25.313  44.058 183.495  0.00  0.00    +0.073 S 
ATOM      2  O   LIG    1       24.550  45.247 183.614  0.00  0.00    -0.150 OA
ATOM      3  O   LIG    1       26.561  44.013 184.165  0.00  0.00    -0.150 OA
ENDROOT
BRANCH   1   6
ATOM      4  C   LIG    1       27.012  45.816 181.196  0.00  0.00    +0.053 C 
ATOM      5  C   LIG    1       26.303  44.514 180.886  0.00  0.00    +0.014 A 
ATOM      6  C   LIG    1       25.576  43.723 181.748  0.00  0.00    +0.119 A 
ATOM      7  C   LIG    1       25.049  42.590 181.102  0.00  0.00    +0.051 A 
ATOM      8  C   LIG    1       25.382  42.502 179.769  0.00  0.00    +0.098 A 
ATOM      9  S   LIG    1       26.349  43.857 179.292  0.00  0.00    -0.085 S 
BRANCH   8  10
ATOM     10  C   LIG    1       25.020  41.450 178.841  0.00  0.00    +0.344 C 
ATOM     11  O   LIG    1       25.319  41.426 177.665  0.00  0.00    -0.245 OA
BRANCH  10  12
ATOM     12  O   LIG    1       24.304  40.427 179.292  0.00  0.00    -0.477 OA
ATOM     13  H   LIG    1       24.887  39.931 179.892  0.00  0.00    +0.295 HD
ENDBRANCH  10  12
ENDBRANCH   8  10
ENDBRANCH   1   6
BRANCH   1  14
ATOM     14  N   LIG    1       24.396  42.795 184.042  0.00  0.00    -0.213 N 
ATOM     15  H   LIG    1       24.904  42.024 183.591  0.00  0.00    +0.174 HD
BRANCH  14  16
ATOM     16  C   LIG    1       24.431  42.642 185.434  0.00  0.00    +0.084 A 
ATOM     17  C   LIG    1       25.340  41.769 186.037  0.00  0.00    +0.146 A 
ATOM     18  F   LIG    1       26.175  41.040 185.264  0.00  0.00    -0.204 F 
ATOM     19  C   LIG    1       25.407  41.632 187.414  0.00  0.00    +0.041 A 
ATOM     20  C   LIG    1       24.536  42.376 188.213  0.00  0.00    +0.015 A 
ATOM     21  C   LIG    1       23.596  43.247 187.632  0.00  0.00    +0.057 A 
ATOM     22  C   LIG    1       23.537  43.356 186.235  0.00  0.00    +0.039 A 
BRANCH  21  23
ATOM     23  C   LIG    1       22.621  44.058 188.499  0.00  0.00    +0.417 C 
ATOM     24  F   LIG    1       22.146  45.117 187.823  0.00  0.00    -0.166 F 
ATOM     25  F   LIG    1       23.261  44.487 189.596  0.00  0.00    -0.166 F 
ATOM     26  F   LIG    1       21.586  43.278 188.872  0.00  0.00    -0.166 F 
ENDBRANCH  21  23
ENDBRANCH  14  16
ENDBRANCH   1  14
TORSDOF 6
ENDMDL
MODEL 4
REMARK VINA RESULT:      -7.0     27.553     29.259
REMARK  Name = ZINC000078751741
REMARK                            x       y       z     vdW  Elec       q    Type
REMARK                         _______ _______ _______ _____ _____    ______ ____
ROOT
ATOM      1  S   LIG    1       17.786  38.496 211.196  0.00  0.00    +0.073 S 
ATOM      2  O   LIG    1       16.983  38.787 210.065  0.00  0.00    -0.150 OA
ATOM      3  O   LIG    1       17.243  38.776 212.474  0.00  0.00    -0.150 OA
ENDROOT
BRANCH   1   6
ATOM      4  C   LIG    1       18.438  41.787 211.255  0.00  0.00    +0.053 C 
ATOM      5  C   LIG    1       19.510  40.733 211.069  0.00  0.00    +0.014 A 
ATOM      6  C   LIG    1       19.351  39.366 211.022  0.00  0.00    +0.119 A 
ATOM      7  C   LIG    1       20.575  38.702 210.824  0.00  0.00    +0.051 A 
ATOM      8  C   LIG    1       21.660  39.544 210.739  0.00  0.00    +0.098 A 
ATOM      9  S   LIG    1       21.161  41.197 210.884  0.00  0.00    -0.085 S 
BRANCH   8  10
ATOM     10  C   LIG    1       23.049  39.172 210.564  0.00  0.00    +0.344 C 
ATOM     11  O   LIG    1       23.970  39.578 211.243  0.00  0.00    -0.245 OA
BRANCH  10  12
ATOM     12  O   LIG    1       23.358  38.326 209.589  0.00  0.00    -0.477 OA
ATOM     13  H   LIG    1       24.050  37.743 209.944  0.00  0.00    +0.295 HD
ENDBRANCH  10  12
ENDBRANCH   8  10
ENDBRANCH   1   6
BRANCH   1  14
ATOM     14  N   LIG    1       18.181  36.890 211.153  0.00  0.00    -0.213 N 
ATOM     15  H   LIG    1       18.325  36.735 212.158  0.00  0.00    +0.174 HD
BRANCH  14  16
ATOM     16  C   LIG    1       17.144  36.073 210.685  0.00  0.00    +0.084 A 
ATOM     17  C   LIG    1       16.146  35.617 211.550  0.00  0.00    +0.146 A 
ATOM     18  F   LIG    1       16.200  35.943 212.860  0.00  0.00    -0.204 F 
ATOM     19  C   LIG    1       15.096  34.835 211.094  0.00  0.00    +0.041 A 
ATOM     20  C   LIG    1       15.046  34.487 209.744  0.00  0.00    +0.015 A 
ATOM     21  C   LIG    1       16.049  34.915 208.854  0.00  0.00    +0.057 A 
ATOM     22  C   LIG    1       17.109  35.692 209.342  0.00  0.00    +0.039 A 
BRANCH  21  23
ATOM     23  C   LIG    1       16.015  34.524 207.368  0.00  0.00    +0.417 C 
ATOM     24  F   LIG    1       16.085  35.613 206.585  0.00  0.00    -0.166 F 
ATOM     25  F   LIG    1       14.872  33.871 207.113  0.00  0.00    -0.166 F 
ATOM     26  F   LIG    1       17.055  33.715 207.085  0.00  0.00    -0.166 F 
ENDBRANCH  21  23
ENDBRANCH  14  16
ENDBRANCH   1  14
TORSDOF 6
ENDMDL
MODEL 5
REMARK VINA RESULT:      -7.0      3.785      5.923
REMARK  Name = ZINC000078751741
REMARK                            x       y       z     vdW  Elec       q    Type
REMARK                         _______ _______ _______ _____ _____    ______ ____
ROOT
ATOM      1  S   LIG    1       23.012  45.200 183.571  0.00  0.00    +0.073 S 
ATOM      2  O   LIG    1       23.278  46.332 184.382  0.00  0.00    -0.150 OA
ATOM      3  O   LIG    1       21.807  44.493 183.811  0.00  0.00    -0.150 OA
ENDROOT
BRANCH   1   6
ATOM      4  C   LIG    1       23.622  42.829 185.866  0.00  0.00    +0.053 C 
ATOM      5  C   LIG    1       24.547  43.111 184.700  0.00  0.00    +0.014 A 
ATOM      6  C   LIG    1       24.396  44.060 183.713  0.00  0.00    +0.119 A 
ATOM      7  C   LIG    1       25.464  44.041 182.799  0.00  0.00    +0.051 A 
ATOM      8  C   LIG    1       26.412  43.080 183.068  0.00  0.00    +0.098 A 
ATOM      9  S   LIG    1       25.991  42.191 184.494  0.00  0.00    -0.085 S 
BRANCH   8  10
ATOM     10  C   LIG    1       27.610  42.790 182.306  0.00  0.00    +0.344 C 
ATOM     11  O   LIG    1       28.044  43.475 181.403  0.00  0.00    -0.245 OA
BRANCH  10  12
ATOM     12  O   LIG    1       28.297  41.693 182.603  0.00  0.00    -0.477 OA
ATOM     13  H   LIG    1       27.877  41.315 183.393  0.00  0.00    +0.295 HD
ENDBRANCH  10  12
ENDBRANCH   8  10
ENDBRANCH   1   6
BRANCH   1  14
ATOM     14  N   LIG    1       23.013  45.681 181.989  0.00  0.00    -0.213 N 
ATOM     15  H   LIG    1       23.977  45.423 181.746  0.00  0.00    +0.174 HD
BRANCH  14  16
ATOM     16  C   LIG    1       22.110  44.969 181.189  0.00  0.00    +0.084 A 
ATOM     17  C   LIG    1       20.984  45.596 180.648  0.00  0.00    +0.146 A 
ATOM     18  F   LIG    1       20.747  46.896 180.927  0.00  0.00    -0.204 F 
ATOM     19  C   LIG    1       20.100  44.912 179.829  0.00  0.00    +0.041 A 
ATOM     20  C   LIG    1       20.337  43.565 179.550  0.00  0.00    +0.015 A 
ATOM     21  C   LIG    1       21.452  42.903 180.097  0.00  0.00    +0.057 A 
ATOM     22  C   LIG    1       22.323  43.613 180.937  0.00  0.00    +0.039 A 
BRANCH  21  23
ATOM     23  C   LIG    1       21.715  41.416 179.812  0.00  0.00    +0.417 C 
ATOM     24  F   LIG    1       22.075  41.230 178.532  0.00  0.00    -0.166 F 
ATOM     25  F   LIG    1       20.597  40.718 180.061  0.00  0.00    -0.166 F 
ATOM     26  F   LIG    1       22.700  40.966 180.614  0.00  0.00    -0.166 F 
ENDBRANCH  21  23
ENDBRANCH  14  16
ENDBRANCH   1  14
TORSDOF 6
ENDMDL
MODEL 6
REMARK VINA RESULT:      -6.9      4.175      5.638
REMARK  Name = ZINC000078751741
REMARK                            x       y       z     vdW  Elec       q    Type
REMARK                         _______ _______ _______ _____ _____    ______ ____
ROOT
ATOM      1  S   LIG    1       22.871  45.379 183.645  0.00  0.00    +0.073 S 
ATOM      2  O   LIG    1       21.694  44.729 184.093  0.00  0.00    -0.150 OA
ATOM      3  O   LIG    1       22.852  45.945 182.346  0.00  0.00    -0.150 OA
ENDROOT
BRANCH   1   6
ATOM      4  C   LIG    1       23.470  42.962 185.895  0.00  0.00    +0.053 C 
ATOM      5  C   LIG    1       24.387  43.250 184.725  0.00  0.00    +0.014 A 
ATOM      6  C   LIG    1       24.240  44.217 183.755  0.00  0.00    +0.119 A 
ATOM      7  C   LIG    1       25.299  44.198 182.830  0.00  0.00    +0.051 A 
ATOM      8  C   LIG    1       26.235  43.218 183.074  0.00  0.00    +0.098 A 
ATOM      9  S   LIG    1       25.816  42.313 184.489  0.00  0.00    -0.085 S 
BRANCH   8  10
ATOM     10  C   LIG    1       27.422  42.924 182.296  0.00  0.00    +0.344 C 
ATOM     11  O   LIG    1       27.863  43.623 181.407  0.00  0.00    -0.245 OA
BRANCH  10  12
ATOM     12  O   LIG    1       28.089  41.807 182.560  0.00  0.00    -0.477 OA
ATOM     13  H   LIG    1       27.429  41.093 182.576  0.00  0.00    +0.295 HD
ENDBRANCH  10  12
ENDBRANCH   8  10
ENDBRANCH   1   6
BRANCH   1  14
ATOM     14  N   LIG    1       23.242  46.581 184.719  0.00  0.00    -0.213 N 
ATOM     15  H   LIG    1       23.303  47.368 184.061  0.00  0.00    +0.174 HD
BRANCH  14  16
ATOM     16  C   LIG    1       22.230  46.821 185.659  0.00  0.00    +0.084 A 
ATOM     17  C   LIG    1       21.164  47.674 185.361  0.00  0.00    +0.146 A 
ATOM     18  F   LIG    1       21.125  48.299 184.164  0.00  0.00    -0.204 F 
ATOM     19  C   LIG    1       20.140  47.895 186.269  0.00  0.00    +0.041 A 
ATOM     20  C   LIG    1       20.186  47.259 187.511  0.00  0.00    +0.015 A 
ATOM     21  C   LIG    1       21.258  46.411 187.845  0.00  0.00    +0.057 A 
ATOM     22  C   LIG    1       22.291  46.216 186.915  0.00  0.00    +0.039 A 
BRANCH  21  23
ATOM     23  C   LIG    1       21.330  45.719 189.215  0.00  0.00    +0.417 C 
ATOM     24  F   LIG    1       20.452  44.705 189.285  0.00  0.00    -0.166 F 
ATOM     25  F   LIG    1       21.046  46.613 190.173  0.00  0.00    -0.166 F 
ATOM     26  F   LIG    1       22.572  45.238 189.419  0.00  0.00    -0.166 F 
ENDBRANCH  21  23
ENDBRANCH  14  16
ENDBRANCH   1  14
TORSDOF 6
ENDMDL
MODEL 7
REMARK VINA RESULT:      -6.9      6.668      8.216
REMARK  Name = ZINC000078751741
REMARK                            x       y       z     vdW  Elec       q    Type
REMARK                         _______ _______ _______ _____ _____    ______ ____
ROOT
ATOM      1  S   LIG    1       21.243  47.412 183.883  0.00  0.00    +0.073 S 
ATOM      2  O   LIG    1       20.235  46.648 184.522  0.00  0.00    -0.150 OA
ATOM      3  O   LIG    1       20.898  48.073 182.678  0.00  0.00    -0.150 OA
ENDROOT
BRANCH   1   6
ATOM      4  C   LIG    1       24.125  48.059 182.291  0.00  0.00    +0.053 C 
ATOM      5  C   LIG    1       23.807  46.717 182.916  0.00  0.00    +0.014 A 
ATOM      6  C   LIG    1       22.660  46.346 183.581  0.00  0.00    +0.119 A 
ATOM      7  C   LIG    1       22.714  45.009 184.015  0.00  0.00    +0.051 A 
ATOM      8  C   LIG    1       23.893  44.369 183.706  0.00  0.00    +0.098 A 
ATOM      9  S   LIG    1       24.953  45.430 182.839  0.00  0.00    -0.085 S 
BRANCH   8  10
ATOM     10  C   LIG    1       24.266  43.008 184.034  0.00  0.00    +0.344 C 
ATOM     11  O   LIG    1       24.123  42.490 185.123  0.00  0.00    -0.245 OA
BRANCH  10  12
ATOM     12  O   LIG    1       24.809  42.255 183.085  0.00  0.00    -0.477 OA
ATOM     13  H   LIG    1       25.284  41.542 183.542  0.00  0.00    +0.295 HD
ENDBRANCH  10  12
ENDBRANCH   8  10
ENDBRANCH   1   6
BRANCH   1  14
ATOM     14  N   LIG    1       21.786  48.553 184.951  0.00  0.00    -0.213 N 
ATOM     15  H   LIG    1       22.688  48.769 184.508  0.00  0.00    +0.174 HD
BRANCH  14  16
ATOM     16  C   LIG    1       20.986  49.703 184.993  0.00  0.00    +0.084 A 
ATOM     17  C   LIG    1       21.354  50.858 184.299  0.00  0.00    +0.146 A 
ATOM     18  F   LIG    1       22.513  50.876 183.604  0.00  0.00    -0.204 F 
ATOM     19  C   LIG    1       20.557  51.991 184.306  0.00  0.00    +0.041 A 
ATOM     20  C   LIG    1       19.366  51.978 185.034  0.00  0.00    +0.015 A 
ATOM     21  C   LIG    1       18.980  50.835 185.759  0.00  0.00    +0.057 A 
ATOM     22  C   LIG    1       19.812  49.706 185.749  0.00  0.00    +0.039 A 
BRANCH  21  23
ATOM     23  C   LIG    1       17.680  50.814 186.578  0.00  0.00    +0.417 C 
ATOM     24  F   LIG    1       16.638  51.222 185.835  0.00  0.00    -0.166 F 
ATOM     25  F   LIG    1       17.814  51.629 187.634  0.00  0.00    -0.166 F 
ATOM     26  F   LIG    1       17.439  49.563 187.019  0.00  0.00    -0.166 F 
ENDBRANCH  21  23
ENDBRANCH  14  16
ENDBRANCH   1  14
TORSDOF 6
ENDMDL
MODEL 8
REMARK VINA RESULT:      -6.9     26.580     27.898
REMARK  Name = ZINC000078751741
REMARK                            x       y       z     vdW  Elec       q    Type
REMARK                         _______ _______ _______ _____ _____    ______ ____
ROOT
ATOM      1  S   LIG    1       17.372  39.509 209.032  0.00  0.00    +0.073 S 
ATOM      2  O   LIG    1       16.124  40.173 208.927  0.00  0.00    -0.150 OA
ATOM      3  O   LIG    1       18.378  39.856 208.097  0.00  0.00    -0.150 OA
ENDROOT
BRANCH   1   6
ATOM      4  C   LIG    1       16.049  37.430 211.310  0.00  0.00    +0.053 C 
ATOM      5  C   LIG    1       16.521  36.972 209.946  0.00  0.00    +0.014 A 
ATOM      6  C   LIG    1       17.082  37.736 208.946  0.00  0.00    +0.119 A 
ATOM      7  C   LIG    1       17.410  36.963 207.818  0.00  0.00    +0.051 A 
ATOM      8  C   LIG    1       17.088  35.631 207.940  0.00  0.00    +0.098 A 
ATOM      9  S   LIG    1       16.385  35.314 209.491  0.00  0.00    -0.085 S 
BRANCH   8  10
ATOM     10  C   LIG    1       17.273  34.588 206.951  0.00  0.00    +0.344 C 
ATOM     11  O   LIG    1       16.630  33.560 206.895  0.00  0.00    -0.245 OA
BRANCH  10  12
ATOM     12  O   LIG    1       18.215  34.751 206.030  0.00  0.00    -0.477 OA
ATOM     13  H   LIG    1       18.969  34.208 206.313  0.00  0.00    +0.295 HD
ENDBRANCH  10  12
ENDBRANCH   8  10
ENDBRANCH   1   6
BRANCH   1  14
ATOM     14  N   LIG    1       17.974  39.772 210.549  0.00  0.00    -0.213 N 
ATOM     15  H   LIG    1       17.606  38.933 211.015  0.00  0.00    +0.174 HD
BRANCH  14  16
ATOM     16  C   LIG    1       19.375  39.772 210.601  0.00  0.00    +0.084 A 
ATOM     17  C   LIG    1       20.077  38.632 211.001  0.00  0.00    +0.146 A 
ATOM     18  F   LIG    1       19.394  37.526 211.372  0.00  0.00    -0.204 F 
ATOM     19  C   LIG    1       21.462  38.607 211.026  0.00  0.00    +0.041 A 
ATOM     20  C   LIG    1       22.167  39.753 210.655  0.00  0.00    +0.015 A 
ATOM     21  C   LIG    1       21.486  40.922 210.267  0.00  0.00    +0.057 A 
ATOM     22  C   LIG    1       20.083  40.927 210.266  0.00  0.00    +0.039 A 
BRANCH  21  23
ATOM     23  C   LIG    1       22.251  42.195 209.873  0.00  0.00    +0.417 C 
ATOM     24  F   LIG    1       21.404  43.218 209.668  0.00  0.00    -0.166 F 
ATOM     25  F   LIG    1       22.940  41.962 208.747  0.00  0.00    -0.166 F 
ATOM     26  F   LIG    1       23.113  42.531 210.853  0.00  0.00    -0.166 F 
ENDBRANCH  21  23
ENDBRANCH  14  16
ENDBRANCH   1  14
TORSDOF 6
ENDMDL
MODEL 9
REMARK VINA RESULT:      -6.8      7.008      9.456
REMARK  Name = ZINC000078751741
REMARK                            x       y       z     vdW  Elec       q    Type
REMARK                         _______ _______ _______ _____ _____    ______ ____
ROOT
ATOM      1  S   LIG    1       22.144  46.546 186.021  0.00  0.00    +0.073 S 
ATOM      2  O   LIG    1       22.486  45.337 185.365  0.00  0.00    -0.150 OA
ATOM      3  O   LIG    1       23.105  47.588 186.015  0.00  0.00    -0.150 OA
ENDROOT
BRANCH   1   6
ATOM      4  C   LIG    1       19.669  47.764 187.932  0.00  0.00    +0.053 C 
ATOM      5  C   LIG    1       20.656  46.723 188.419  0.00  0.00    +0.014 A 
ATOM      6  C   LIG    1       21.706  46.166 187.724  0.00  0.00    +0.119 A 
ATOM      7  C   LIG    1       22.418  45.238 188.505  0.00  0.00    +0.051 A 
ATOM      8  C   LIG    1       21.911  45.070 189.773  0.00  0.00    +0.098 A 
ATOM      9  S   LIG    1       20.537  46.096 190.021  0.00  0.00    -0.085 S 
BRANCH   8  10
ATOM     10  C   LIG    1       22.398  44.175 190.804  0.00  0.00    +0.344 C 
ATOM     11  O   LIG    1       22.812  44.524 191.890  0.00  0.00    -0.245 OA
BRANCH  10  12
ATOM     12  O   LIG    1       22.402  42.871 190.557  0.00  0.00    -0.477 OA
ATOM     13  H   LIG    1       23.279  42.665 190.195  0.00  0.00    +0.295 HD
ENDBRANCH  10  12
ENDBRANCH   8  10
ENDBRANCH   1   6
BRANCH   1  14
ATOM     14  N   LIG    1       20.755  47.132 185.341  0.00  0.00    -0.213 N 
ATOM     15  H   LIG    1       20.324  47.535 186.183  0.00  0.00    +0.174 HD
BRANCH  14  16
ATOM     16  C   LIG    1       20.980  48.136 184.390  0.00  0.00    +0.084 A 
ATOM     17  C   LIG    1       21.293  47.813 183.067  0.00  0.00    +0.146 A 
ATOM     18  F   LIG    1       21.411  46.516 182.709  0.00  0.00    -0.204 F 
ATOM     19  C   LIG    1       21.486  48.795 182.110  0.00  0.00    +0.041 A 
ATOM     20  C   LIG    1       21.376  50.136 182.482  0.00  0.00    +0.015 A 
ATOM     21  C   LIG    1       21.082  50.491 183.811  0.00  0.00    +0.057 A 
ATOM     22  C   LIG    1       20.907  49.479 184.766  0.00  0.00    +0.039 A 
BRANCH  21  23
ATOM     23  C   LIG    1       20.976  51.964 184.237  0.00  0.00    +0.417 C 
ATOM     24  F   LIG    1       20.827  52.762 183.167  0.00  0.00    -0.166 F 
ATOM     25  F   LIG    1       22.091  52.312 184.894  0.00  0.00    -0.166 F 
ATOM     26  F   LIG    1       19.917  52.127 185.055  0.00  0.00    -0.166 F 
ENDBRANCH  21  23
ENDBRANCH  14  16
ENDBRANCH   1  14
TORSDOF 6
ENDMDL
