REMARK VINA RESULT:      -7.9      1.979      2.394
REMARK  Name = ZINC000000607845
REMARK                            x       y       z     vdW  Elec       q    Type
REMARK                         _______ _______ _______ _____ _____    ______ ____
ROOT
ATOM      1  C   LIG    1       29.001  17.213 185.604  0.00  0.00    -0.021 A 
ATOM      2  C   LIG    1       30.279  17.739 185.302  0.00  0.00    +0.003 A 
ATOM      3  C   LIG    1       31.132  18.650 185.949  0.00  0.00    +0.014 A 
ATOM      4  C   LIG    1       32.367  18.950 185.391  0.00  0.00    -0.045 A 
ATOM      5  C   LIG    1       32.762  18.352 184.167  0.00  0.00    +0.006 A 
ATOM      6  C   LIG    1       31.927  17.462 183.513  0.00  0.00    +0.026 A 
ATOM      7  C   LIG    1       30.691  17.172 184.103  0.00  0.00    +0.047 A 
ATOM      8  N   LIG    1       29.680  16.331 183.681  0.00  0.00    -0.360 N 
ATOM      9  H   LIG    1       29.695  15.771 182.814  0.00  0.00    +0.165 HD
ATOM     10  C   LIG    1       28.655  16.361 184.602  0.00  0.00    +0.087 A 
ENDROOT
BRANCH   1  11
ATOM     11  C   LIG    1       28.165  17.531 186.829  0.00  0.00    +0.056 C 
BRANCH  11  14
ATOM     12  C   LIG    1       28.303  17.273 189.680  0.00  0.00    +0.105 C 
ATOM     13  N   LIG    1       27.559  16.236 188.942  0.00  0.00    -0.302 NA
ATOM     14  C   LIG    1       27.730  16.181 187.462  0.00  0.00    +0.061 C 
ATOM     15  C   LIG    1       26.326  15.805 186.938  0.00  0.00    +0.020 C 
ATOM     16  C   LIG    1       25.614  15.289 188.187  0.00  0.00    +0.017 C 
ATOM     17  C   LIG    1       26.135  16.249 189.252  0.00  0.00    +0.084 C 
ENDBRANCH  11  14
ENDBRANCH   1  11
BRANCH   4  18
ATOM     18  C   LIG    1       33.308  19.899 186.104  0.00  0.00    +0.058 C 
BRANCH  18  19
ATOM     19  C   LIG    1       34.658  19.167 186.185  0.00  0.00    +0.176 C 
BRANCH  19  20
ATOM     20  S   LIG    1       35.498  19.277 187.748  0.00  0.00    -0.003 S 
ATOM     21  O   LIG    1       35.498  17.986 188.348  0.00  0.00    -0.169 OA
ATOM     22  O   LIG    1       34.914  20.338 188.495  0.00  0.00    -0.169 OA
BRANCH  20  23
ATOM     23  C   LIG    1       37.183  19.722 187.296  0.00  0.00    +0.088 A 
ATOM     24  C   LIG    1       37.744  20.922 187.741  0.00  0.00    +0.027 A 
ATOM     25  C   LIG    1       39.047  21.268 187.393  0.00  0.00    +0.002 A 
ATOM     26  C   LIG    1       39.800  20.420 186.588  0.00  0.00    +0.000 A 
ATOM     27  C   LIG    1       39.249  19.230 186.128  0.00  0.00    +0.002 A 
ATOM     28  C   LIG    1       37.946  18.885 186.477  0.00  0.00    +0.027 A 
ENDBRANCH  20  23
ENDBRANCH  19  20
ENDBRANCH  18  19
ENDBRANCH   4  18
TORSDOF 6
