REMARK VINA RESULT:      -7.5      3.650      8.261
REMARK  Name = ZINC000049399659
REMARK                            x       y       z     vdW  Elec       q    Type
REMARK                         _______ _______ _______ _____ _____    ______ ____
ROOT
ATOM      1  C   LIG    1       21.503  46.221 183.461  0.00  0.00    +0.173 C 
ENDROOT
BRANCH   1   4
ATOM      2  N   LIG    1       22.862  44.251 184.025  0.00  0.00    -0.282 N 
ATOM      3  H   LIG    1       21.959  43.765 183.921  0.00  0.00    +0.155 HD
ATOM      4  C   LIG    1       22.813  45.618 183.920  0.00  0.00    +0.228 C 
ATOM      5  O   LIG    1       23.775  46.305 184.193  0.00  0.00    -0.275 OA
BRANCH   2   7
ATOM      6  C   LIG    1       23.932  42.867 185.673  0.00  0.00    +0.141 A 
ATOM      7  C   LIG    1       23.945  43.392 184.371  0.00  0.00    +0.077 A 
ATOM      8  C   LIG    1       24.971  43.050 183.487  0.00  0.00    +0.047 A 
ATOM      9  C   LIG    1       25.986  42.196 183.920  0.00  0.00    +0.043 A 
ATOM     10 CL   LIG    1       27.267  41.764 182.839  0.00  0.00    -0.083 Cl
ATOM     11  C   LIG    1       25.980  41.681 185.220  0.00  0.00    +0.024 A 
ATOM     12  C   LIG    1       24.952  42.014 186.098  0.00  0.00    +0.049 A 
BRANCH   6  14
ATOM     13  C   LIG    1       22.967  43.330 187.958  0.00  0.00    +0.277 C 
ATOM     14  O   LIG    1       22.876  43.217 186.518  0.00  0.00    -0.493 OA
ENDBRANCH   6  14
ENDBRANCH   2   7
ENDBRANCH   1   4
BRANCH   1  15
ATOM     15  S   LIG    1       21.933  47.555 182.278  0.00  0.00    -0.077 S 
BRANCH  15  16
ATOM     16  C   LIG    1       21.759  48.986 183.246  0.00  0.00    +0.190 A 
ATOM     17  N   LIG    1       20.769  49.014 184.139  0.00  0.00    -0.207 NA
ATOM     18  C   LIG    1       20.633  50.100 184.881  0.00  0.00    +0.126 A 
ATOM     19  C   LIG    1       21.496  51.182 184.738  0.00  0.00    +0.063 A 
ATOM     20  C   LIG    1       22.494  51.093 183.791  0.00  0.00    +0.117 A 
ATOM     21  N   LIG    1       22.620  50.002 183.049  0.00  0.00    -0.230 NA
BRANCH  18  22
ATOM     22  N   LIG    1       19.608  50.143 185.819  0.00  0.00    -0.315 N 
ATOM     23  C   LIG    1       18.347  50.770 185.377  0.00  0.00    +0.106 C 
ATOM     24  C   LIG    1       17.668  51.306 186.651  0.00  0.00    +0.019 C 
ATOM     25  C   LIG    1       17.402  50.112 187.585  0.00  0.00    +0.003 C 
ATOM     26  C   LIG    1       18.734  49.441 187.960  0.00  0.00    +0.019 C 
ATOM     27  C   LIG    1       19.409  48.945 186.666  0.00  0.00    +0.106 C 
ENDBRANCH  18  22
ENDBRANCH  15  16
ENDBRANCH   1  15
TORSDOF 6
