REMARK VINA RESULT:      -7.2     20.856     22.946
REMARK  Name = ZINC000022625070
REMARK                            x       y       z     vdW  Elec       q    Type
REMARK                         _______ _______ _______ _____ _____    ______ ____
ROOT
ATOM      1  C   LIG    1       32.841  19.098 185.745  0.00  0.00    +0.171 A 
ATOM      2  C   LIG    1       32.099  18.525 184.711  0.00  0.00    +0.032 A 
ATOM      3  C   LIG    1       32.322  18.402 183.214  0.00  0.00    +0.046 C 
ATOM      4  C   LIG    1       31.625  17.102 182.724  0.00  0.00    +0.040 C 
ATOM      5  C   LIG    1       30.190  16.990 183.260  0.00  0.00    -0.036 A 
ATOM      6  C   LIG    1       29.893  17.435 184.560  0.00  0.00    +0.027 A 
ATOM      7  C   LIG    1       28.613  17.256 185.088  0.00  0.00    +0.057 A 
ATOM      8  C   LIG    1       27.630  16.652 184.306  0.00  0.00    +0.121 A 
ATOM      9  C   LIG    1       27.911  16.224 183.011  0.00  0.00    +0.046 A 
ATOM     10  C   LIG    1       29.193  16.389 182.493  0.00  0.00    +0.008 A 
ATOM     11  C   LIG    1       30.961  18.093 185.272  0.00  0.00    +0.171 A 
ATOM     12  O   LIG    1       31.011  18.389 186.577  0.00  0.00    -0.354 OA
ATOM     13  N   LIG    1       32.157  18.999 186.863  0.00  0.00    -0.073 NA
ENDROOT
BRANCH   1  16
ATOM     14  N   LIG    1       35.266  18.936 185.809  0.00  0.00    -0.307 N 
ATOM     15  H   LIG    1       35.083  17.960 186.072  0.00  0.00    +0.149 HD
ATOM     16  C   LIG    1       34.162  19.726 185.636  0.00  0.00    +0.266 C 
ATOM     17  O   LIG    1       34.347  20.921 185.408  0.00  0.00    -0.268 OA
BRANCH  14  18
ATOM     18  C   LIG    1       36.615  19.448 185.951  0.00  0.00    +0.070 C 
ATOM     19  C   LIG    1       37.247  19.381 184.561  0.00  0.00    +0.028 C 
BRANCH  18  20
ATOM     20  C   LIG    1       37.344  18.589 187.000  0.00  0.00    +0.023 C 
BRANCH  20  21
ATOM     21  C   LIG    1       38.749  19.079 187.416  0.00  0.00    +0.017 C 
BRANCH  21  22
ATOM     22  C   LIG    1       38.896  18.760 188.924  0.00  0.00    +0.084 C 
BRANCH  22  23
ATOM     23  N   LIG    1       38.742  20.002 189.725  0.00  0.00    -0.303 NA
BRANCH  23  25
ATOM     24  C   LIG    1       40.107  21.926 189.434  0.00  0.00    +0.020 C 
ATOM     25  C   LIG    1       38.842  21.237 188.915  0.00  0.00    +0.081 C 
ENDBRANCH  23  25
BRANCH  23  26
ATOM     26  C   LIG    1       37.572  19.982 190.623  0.00  0.00    +0.081 C 
ATOM     27  C   LIG    1       36.513  20.844 189.926  0.00  0.00    +0.020 C 
ENDBRANCH  23  26
ENDBRANCH  22  23
ENDBRANCH  21  22
ENDBRANCH  20  21
ENDBRANCH  18  20
ENDBRANCH  14  18
ENDBRANCH   1  16
BRANCH   8  28
ATOM     28  O   LIG    1       26.349  16.452 184.768  0.00  0.00    -0.495 OA
ATOM     29  C   LIG    1       25.993  16.202 186.147  0.00  0.00    +0.277 C 
ENDBRANCH   8  28
TORSDOF 9
