REMARK VINA RESULT:      -6.9     26.580     27.898
REMARK  Name = ZINC000078751741
REMARK                            x       y       z     vdW  Elec       q    Type
REMARK                         _______ _______ _______ _____ _____    ______ ____
ROOT
ATOM      1  S   LIG    1       17.372  39.509 209.032  0.00  0.00    +0.073 S 
ATOM      2  O   LIG    1       16.124  40.173 208.927  0.00  0.00    -0.150 OA
ATOM      3  O   LIG    1       18.378  39.856 208.097  0.00  0.00    -0.150 OA
ENDROOT
BRANCH   1   6
ATOM      4  C   LIG    1       16.049  37.430 211.310  0.00  0.00    +0.053 C 
ATOM      5  C   LIG    1       16.521  36.972 209.946  0.00  0.00    +0.014 A 
ATOM      6  C   LIG    1       17.082  37.736 208.946  0.00  0.00    +0.119 A 
ATOM      7  C   LIG    1       17.410  36.963 207.818  0.00  0.00    +0.051 A 
ATOM      8  C   LIG    1       17.088  35.631 207.940  0.00  0.00    +0.098 A 
ATOM      9  S   LIG    1       16.385  35.314 209.491  0.00  0.00    -0.085 S 
BRANCH   8  10
ATOM     10  C   LIG    1       17.273  34.588 206.951  0.00  0.00    +0.344 C 
ATOM     11  O   LIG    1       16.630  33.560 206.895  0.00  0.00    -0.245 OA
BRANCH  10  12
ATOM     12  O   LIG    1       18.215  34.751 206.030  0.00  0.00    -0.477 OA
ATOM     13  H   LIG    1       18.969  34.208 206.313  0.00  0.00    +0.295 HD
ENDBRANCH  10  12
ENDBRANCH   8  10
ENDBRANCH   1   6
BRANCH   1  14
ATOM     14  N   LIG    1       17.974  39.772 210.549  0.00  0.00    -0.213 N 
ATOM     15  H   LIG    1       17.606  38.933 211.015  0.00  0.00    +0.174 HD
BRANCH  14  16
ATOM     16  C   LIG    1       19.375  39.772 210.601  0.00  0.00    +0.084 A 
ATOM     17  C   LIG    1       20.077  38.632 211.001  0.00  0.00    +0.146 A 
ATOM     18  F   LIG    1       19.394  37.526 211.372  0.00  0.00    -0.204 F 
ATOM     19  C   LIG    1       21.462  38.607 211.026  0.00  0.00    +0.041 A 
ATOM     20  C   LIG    1       22.167  39.753 210.655  0.00  0.00    +0.015 A 
ATOM     21  C   LIG    1       21.486  40.922 210.267  0.00  0.00    +0.057 A 
ATOM     22  C   LIG    1       20.083  40.927 210.266  0.00  0.00    +0.039 A 
BRANCH  21  23
ATOM     23  C   LIG    1       22.251  42.195 209.873  0.00  0.00    +0.417 C 
ATOM     24  F   LIG    1       21.404  43.218 209.668  0.00  0.00    -0.166 F 
ATOM     25  F   LIG    1       22.940  41.962 208.747  0.00  0.00    -0.166 F 
ATOM     26  F   LIG    1       23.113  42.531 210.853  0.00  0.00    -0.166 F 
ENDBRANCH  21  23
ENDBRANCH  14  16
ENDBRANCH   1  14
TORSDOF 6
