REMARK VINA RESULT:      -7.7      0.000      0.000
REMARK  Name = ZINC000000622958
REMARK                            x       y       z     vdW  Elec       q    Type
REMARK                         _______ _______ _______ _____ _____    ______ ____
ROOT
ATOM      1  C   LIG    1       26.658  43.119 181.309  0.00  0.00    +0.271 C 
ATOM      2  N   LIG    1       26.163  44.065 182.278  0.00  0.00    -0.157 N 
ATOM      3  C   LIG    1       26.368  45.311 181.915  0.00  0.00    +0.250 C 
ATOM      4  C   LIG    1       25.968  46.538 182.722  0.00  0.00    +0.124 C 
ATOM      5  C   LIG    1       24.788  47.216 181.987  0.00  0.00    +0.012 C 
ATOM      6  C   LIG    1       25.320  48.035 180.795  0.00  0.00    +0.004 C 
ATOM      7  C   LIG    1       25.908  47.225 179.621  0.00  0.00    +0.045 C 
ATOM      8  C   LIG    1       27.259  46.604 180.025  0.00  0.00    +0.236 C 
ATOM      9  N   LIG    1       26.943  45.359 180.740  0.00  0.00    -0.258 N 
ATOM     10  C   LIG    1       27.128  44.019 180.138  0.00  0.00    +0.323 C 
ENDROOT
BRANCH   1  11
ATOM     11  C   LIG    1       25.564  42.138 180.875  0.00  0.00    +0.034 A 
ATOM     12  C   LIG    1       24.542  42.579 180.014  0.00  0.00    +0.060 A 
ATOM     13  C   LIG    1       23.555  41.684 179.635  0.00  0.00    +0.167 A 
ATOM     14  O   LIG    1       22.503  41.933 178.827  0.00  0.00    -0.453 OA
ATOM     15  C   LIG    1       21.747  40.657 178.738  0.00  0.00    +0.466 C 
ATOM     16  O   LIG    1       22.504  39.699 179.578  0.00  0.00    -0.453 OA
ATOM     17  C   LIG    1       23.556  40.385 180.074  0.00  0.00    +0.166 A 
ATOM     18  C   LIG    1       24.548  39.915 180.919  0.00  0.00    +0.050 A 
ATOM     19  C   LIG    1       25.554  40.799 181.319  0.00  0.00    +0.014 A 
ENDBRANCH   1  11
BRANCH   2  20
ATOM     20  C   LIG    1       25.474  43.667 183.454  0.00  0.00    +0.124 A 
ATOM     21  C   LIG    1       24.101  43.889 183.556  0.00  0.00    +0.050 A 
ATOM     22  C   LIG    1       23.432  43.483 184.708  0.00  0.00    +0.024 A 
ATOM     23  C   LIG    1       24.138  42.860 185.742  0.00  0.00    +0.041 A 
ATOM     24 CL   LIG    1       23.303  42.355 187.170  0.00  0.00    -0.084 Cl
ATOM     25  C   LIG    1       25.515  42.643 185.628  0.00  0.00    +0.024 A 
ATOM     26  C   LIG    1       26.189  43.047 184.479  0.00  0.00    +0.050 A 
ENDBRANCH   2  20
BRANCH   1  27
ATOM     27  O   LIG    1       27.772  42.480 181.918  0.00  0.00    -0.347 OA
ATOM     28  H   LIG    1       28.407  42.260 181.220  0.00  0.00    +0.215 HD
ENDBRANCH   1  27
TORSDOF 3
