REMARK VINA RESULT:      -7.3     25.681     28.245
REMARK  Name = ZINC000006087397
REMARK                            x       y       z     vdW  Elec       q    Type
REMARK                         _______ _______ _______ _____ _____    ______ ____
ROOT
ATOM      1  C   LIG    1       20.481  41.145 212.032  0.00  0.00    +0.214 C 
ENDROOT
BRANCH   1   7
ATOM      2  C   LIG    1       16.892  37.921 212.426  0.00  0.00    +0.010 C 
ATOM      3  C   LIG    1       16.684  38.286 210.939  0.00  0.00    +0.018 C 
ATOM      4  C   LIG    1       17.955  38.951 210.316  0.00  0.00    +0.115 C 
ATOM      5  C   LIG    1       18.358  40.219 211.060  0.00  0.00    +0.247 C 
ATOM      6  O   LIG    1       17.705  41.218 211.307  0.00  0.00    -0.273 OA
ATOM      7  N   LIG    1       19.656  40.082 211.445  0.00  0.00    -0.215 N 
ATOM      8  C   LIG    1       20.131  38.849 211.082  0.00  0.00    +0.310 C 
ATOM      9  O   LIG    1       21.261  38.439 211.272  0.00  0.00    -0.252 OA
ATOM     10  N   LIG    1       19.152  38.138 210.487  0.00  0.00    -0.285 N 
ATOM     11  H   LIG    1       19.389  37.313 209.926  0.00  0.00    +0.151 HD
ATOM     12  C   LIG    1       17.744  39.272 208.815  0.00  0.00    +0.035 C 
ATOM     13  C   LIG    1       17.365  37.985 208.058  0.00  0.00    +0.003 C 
ATOM     14  C   LIG    1       16.115  37.328 208.660  0.00  0.00    +0.000 C 
ATOM     15  C   LIG    1       16.323  37.013 210.147  0.00  0.00    +0.006 C 
ENDBRANCH   1   7
BRANCH   1  16
ATOM     16  C   LIG    1       21.162  41.882 210.874  0.00  0.00    +0.238 C 
ATOM     17  N   LIG    1       22.319  42.653 211.051  0.00  0.00    -0.267 N 
ATOM     18  O   LIG    1       20.668  41.821 209.762  0.00  0.00    -0.274 OA
BRANCH  17  19
ATOM     19  C   LIG    1       22.993  43.288 209.958  0.00  0.00    +0.010 C 
ATOM     20  C   LIG    1       23.852  42.389 209.079  0.00  0.00    +0.051 C 
ATOM     21  C   LIG    1       24.894  43.279 208.369  0.00  0.00    +0.006 C 
ATOM     22  C   LIG    1       24.119  44.387 207.627  0.00  0.00    +0.004 C 
ATOM     23  C   LIG    1       23.580  45.385 208.675  0.00  0.00    +0.029 C 
ATOM     24  C   LIG    1       22.854  44.614 209.763  0.00  0.00    -0.008 C 
ENDBRANCH  17  19
BRANCH  17  25
ATOM     25  C   LIG    1       22.931  42.825 212.384  0.00  0.00    +0.187 C 
BRANCH  25  26
ATOM     26  C   LIG    1       24.092  41.850 212.427  0.00  0.00    +0.122 A 
ATOM     27  O   LIG    1       23.875  40.506 212.441  0.00  0.00    -0.466 OA
ATOM     28  C   LIG    1       25.087  39.898 212.475  0.00  0.00    +0.195 A 
ATOM     29  C   LIG    1       26.061  40.836 212.482  0.00  0.00    +0.041 A 
ATOM     30  C   LIG    1       25.426  42.081 212.451  0.00  0.00    +0.046 A 
ENDBRANCH  25  26
ENDBRANCH  17  25
ENDBRANCH   1  16
TORSDOF 5
