REMARK VINA RESULT:      -8.8     20.369     22.281
REMARK  Name = ZINC000009035748
REMARK                            x       y       z     vdW  Elec       q    Type
REMARK                         _______ _______ _______ _____ _____    ______ ____
ROOT
ATOM      1  C   LIG    1       39.006  19.066 190.225  0.00  0.00    +0.218 C 
ATOM      2  N   LIG    1       37.961  19.603 189.554  0.00  0.00    -0.297 N 
ATOM      3  C   LIG    1       36.832  18.701 189.210  0.00  0.00    +0.143 C 
ATOM      4  C   LIG    1       36.061  19.243 188.007  0.00  0.00    -0.025 A 
ATOM      5  C   LIG    1       34.910  18.568 187.605  0.00  0.00    +0.028 A 
ATOM      6  C   LIG    1       34.173  19.030 186.515  0.00  0.00    +0.034 A 
ATOM      7  C   LIG    1       34.587  20.159 185.807  0.00  0.00    +0.023 A 
ATOM      8  C   LIG    1       35.735  20.830 186.206  0.00  0.00    +0.006 A 
ATOM      9  C   LIG    1       36.472  20.383 187.304  0.00  0.00    -0.041 A 
ATOM     10  C   LIG    1       37.723  21.129 187.720  0.00  0.00    +0.054 C 
ATOM     11  C   LIG    1       37.791  21.042 189.251  0.00  0.00    +0.113 C 
ATOM     12  O   LIG    1       38.988  17.881 190.551  0.00  0.00    -0.275 OA
ENDROOT
BRANCH   6  13
ATOM     13  N   LIG    1       33.023  18.292 186.148  0.00  0.00    -0.283 N 
ATOM     14  H   LIG    1       33.166  17.325 185.828  0.00  0.00    +0.155 HD
ATOM     15  C   LIG    1       31.715  18.711 186.162  0.00  0.00    +0.255 C 
ATOM     16  O   LIG    1       31.420  19.831 186.527  0.00  0.00    -0.272 OA
BRANCH  15  17
ATOM     17  C   LIG    1       30.659  17.702 185.750  0.00  0.00    +0.324 C 
BRANCH  17  18
ATOM     18  O   LIG    1       29.857  18.313 184.683  0.00  0.00    -0.483 OA
BRANCH  18  19
ATOM     19  C   LIG    1       29.399  17.641 183.570  0.00  0.00    +0.121 A 
ATOM     20  C   LIG    1       28.018  17.570 183.396  0.00  0.00    +0.047 A 
ATOM     21  C   LIG    1       27.497  16.907 182.291  0.00  0.00    +0.023 A 
ATOM     22  C   LIG    1       28.358  16.317 181.363  0.00  0.00    +0.041 A 
ATOM     23 CL   LIG    1       27.709  15.490 179.988  0.00  0.00    -0.084 Cl
ATOM     24  C   LIG    1       29.743  16.389 181.541  0.00  0.00    +0.023 A 
ATOM     25  C   LIG    1       30.268  17.053 182.646  0.00  0.00    +0.047 A 
ENDBRANCH  18  19
ENDBRANCH  17  18
ENDBRANCH  15  17
ENDBRANCH   6  13
BRANCH   1  27
ATOM     26  C   LIG    1       40.510  19.852 192.148  0.00  0.00    +0.017 C 
ATOM     27  C   LIG    1       40.226  19.933 190.635  0.00  0.00    +0.069 C 
ATOM     28  C   LIG    1       41.519  19.538 189.896  0.00  0.00    +0.017 C 
ENDBRANCH   1  27
TORSDOF 5
