REMARK VINA RESULT:      -6.5     22.007     23.520
REMARK  Name = ligand.pdb
REMARK  7 active torsions:
REMARK  status: ('A' for Active; 'I' for Inactive)
REMARK    1  A    between atoms: C1_1  and  C6_8
REMARK    2  A    between atoms: C2_3  and  C3_5
REMARK    3  A    between atoms: C2_3  and  C11_13
REMARK    4  A    between atoms: C3_5  and  C4_6
REMARK    5  A    between atoms: C3_5  and  C5_7
REMARK    6  A    between atoms: C6_8  and  C7_9
REMARK    7  A    between atoms: C6_8  and  C8_10
REMARK                            x       y       z     vdW  Elec       q    Type
REMARK                         _______ _______ _______ _____ _____    ______ ____
ROOT
ATOM      1  C8  IBP A 701      27.432  16.455 185.826  0.00  0.00    +0.000 A 
ATOM      2  C9  IBP A 701      28.782  16.636 185.445  0.00  0.00    +0.000 A 
ATOM      3  C10 IBP A 701      29.138  16.889 184.096  0.00  0.00    +0.000 A 
ATOM      4  C11 IBP A 701      28.157  16.970 183.073  0.00  0.00    +0.000 A 
ATOM      5  C12 IBP A 701      26.811  16.791 183.453  0.00  0.00    +0.000 A 
ATOM      6  C13 IBP A 701      26.453  16.538 184.803  0.00  0.00    +0.000 A 
ENDROOT
BRANCH   1   7
ATOM      7  C6  IBP A 701      27.070  16.167 187.303  0.00  0.00    +0.000 C 
ATOM      8  C7  IBP A 701      25.648  15.632 187.492  0.00  0.00    +0.000 C 
BRANCH   7   9
ATOM      9  C1  IBP A 701      27.292  17.436 188.113  0.00  0.00    +0.000 C 
ATOM     10  O1  IBP A 701      28.225  17.330 189.023  0.00  0.00    +0.000 OA
ATOM     11  O2  IBP A 701      26.648  18.467 187.955  0.00  0.00    +0.000 OA
ENDBRANCH   7   9
ENDBRANCH   1   7
BRANCH   4  12
ATOM     12  C2  IBP A 701      28.554  17.234 181.625  0.00  0.00    +0.000 C 
BRANCH  12  13
ATOM     13  C3  IBP A 701      27.596  16.662 180.572  0.00  0.00    +0.000 C 
ATOM     14  C4  IBP A 701      27.802  15.158 180.440  0.00  0.00    +0.000 C 
ATOM     15  C5  IBP A 701      27.806  17.317 179.225  0.00  0.00    +0.000 C 
ENDBRANCH  12  13
ENDBRANCH   4  12
TORSDOF 4
