REMARK VINA RESULT:      -7.8     23.784     25.601
REMARK  Name = ZINC000000593415
REMARK                            x       y       z     vdW  Elec       q    Type
REMARK                         _______ _______ _______ _____ _____    ______ ____
ROOT
ATOM      1  C   LIG    1       17.519  38.143 209.104  0.00  0.00    -0.043 A 
ATOM      2  C   LIG    1       17.957  39.064 208.149  0.00  0.00    +0.006 A 
ATOM      3  C   LIG    1       19.069  39.863 208.388  0.00  0.00    +0.023 A 
ATOM      4  C   LIG    1       19.752  39.749 209.597  0.00  0.00    +0.034 A 
ATOM      5  C   LIG    1       19.337  38.827 210.558  0.00  0.00    +0.023 A 
ATOM      6  C   LIG    1       18.224  38.032 210.310  0.00  0.00    +0.006 A 
ENDROOT
BRANCH   4   7
ATOM      7  N   LIG    1       20.882  40.576 209.796  0.00  0.00    -0.282 N 
ATOM      8  H   LIG    1       20.699  41.559 210.024  0.00  0.00    +0.155 HD
ATOM      9  C   LIG    1       22.204  40.178 209.826  0.00  0.00    +0.248 C 
ATOM     10  O   LIG    1       22.466  38.984 209.782  0.00  0.00    -0.270 OA
BRANCH   9  11
ATOM     11  C   LIG    1       23.240  41.208 209.954  0.00  0.00    +0.042 A 
ATOM     12  C   LIG    1       23.577  42.058 208.882  0.00  0.00    +0.051 A 
ATOM     13  C   LIG    1       24.558  43.027 209.058  0.00  0.00    +0.127 A 
ATOM     14  F   LIG    1       24.861  43.835 208.021  0.00  0.00    -0.205 F 
ATOM     15  C   LIG    1       25.236  43.193 210.257  0.00  0.00    +0.076 A 
ATOM     16  C   LIG    1       24.901  42.341 211.297  0.00  0.00    +0.127 A 
ATOM     17  F   LIG    1       25.544  42.472 212.476  0.00  0.00    -0.205 F 
ATOM     18  C   LIG    1       23.926  41.358 211.171  0.00  0.00    +0.051 A 
ENDBRANCH   9  11
ENDBRANCH   4   7
BRANCH   1  19
ATOM     19  C   LIG    1       16.254  37.326 208.808  0.00  0.00    +0.031 C 
ATOM     20  C   LIG    1       15.068  38.231 208.425  0.00  0.00    +0.014 C 
BRANCH  19  21
ATOM     21  C   LIG    1       16.574  36.276 207.720  0.00  0.00    +0.113 C 
BRANCH  21  22
ATOM     22  N   LIG    1       15.346  35.546 207.427  0.00  0.00    -0.194 NA
ATOM     23  H   LIG    1       15.041  35.820 206.491  0.00  0.00    +0.148 HD
BRANCH  22  24
ATOM     24  S   LIG    1       15.367  33.927 207.626  0.00  0.00    +0.032 S 
ATOM     25  O   LIG    1       14.458  33.358 206.695  0.00  0.00    -0.158 OA
ATOM     26  O   LIG    1       16.714  33.476 207.569  0.00  0.00    -0.158 OA
BRANCH  24  28
ATOM     27  C   LIG    1       14.490  32.180 209.709  0.00  0.00    +0.033 C 
ATOM     28  C   LIG    1       14.735  33.656 209.298  0.00  0.00    +0.142 C 
ATOM     29  C   LIG    1       15.600  34.239 210.444  0.00  0.00    +0.033 C 
ENDBRANCH  24  28
ENDBRANCH  22  24
ENDBRANCH  21  22
ENDBRANCH  19  21
ENDBRANCH   1  19
TORSDOF 7
