REMARK VINA RESULT:      -7.0     29.753     32.068
REMARK  Name = ZINC000006087402
REMARK                            x       y       z     vdW  Elec       q    Type
REMARK                         _______ _______ _______ _____ _____    ______ ____
ROOT
ATOM      1  C   LIG    1       39.758  21.381 191.009  0.00  0.00    +0.214 C 
ENDROOT
BRANCH   1   7
ATOM      2  C   LIG    1       39.324  25.713 194.869  0.00  0.00    +0.010 C 
ATOM      3  C   LIG    1       40.287  24.805 194.066  0.00  0.00    +0.018 C 
ATOM      4  C   LIG    1       39.950  23.285 194.238  0.00  0.00    +0.115 C 
ATOM      5  C   LIG    1       40.583  22.450 193.118  0.00  0.00    +0.247 C 
ATOM      6  O   LIG    1       41.749  22.193 192.876  0.00  0.00    -0.273 OA
ATOM      7  N   LIG    1       39.576  21.982 192.334  0.00  0.00    -0.215 N 
ATOM      8  C   LIG    1       38.365  22.389 192.817  0.00  0.00    +0.310 C 
ATOM      9  O   LIG    1       37.291  22.196 192.276  0.00  0.00    -0.252 OA
ATOM     10  N   LIG    1       38.535  23.054 193.976  0.00  0.00    -0.285 N 
ATOM     11  H   LIG    1       37.790  23.678 194.301  0.00  0.00    +0.151 HD
ATOM     12  C   LIG    1       40.274  22.737 195.653  0.00  0.00    +0.035 C 
ATOM     13  C   LIG    1       41.743  23.035 196.006  0.00  0.00    +0.003 C 
ATOM     14  C   LIG    1       42.069  24.530 195.897  0.00  0.00    +0.000 C 
ATOM     15  C   LIG    1       41.749  25.057 194.490  0.00  0.00    +0.006 C 
ENDBRANCH   1   7
BRANCH   1  16
ATOM     16  C   LIG    1       39.821  19.861 191.179  0.00  0.00    +0.238 C 
ATOM     17  N   LIG    1       39.069  19.058 190.336  0.00  0.00    -0.267 N 
ATOM     18  O   LIG    1       40.511  19.325 192.038  0.00  0.00    -0.274 OA
BRANCH  17  19
ATOM     19  C   LIG    1       38.112  19.590 189.432  0.00  0.00    +0.010 C 
ATOM     20  C   LIG    1       38.570  19.715 187.988  0.00  0.00    +0.051 C 
ATOM     21  C   LIG    1       37.621  20.701 187.274  0.00  0.00    +0.006 C 
ATOM     22  C   LIG    1       36.177  20.212 187.508  0.00  0.00    +0.004 C 
ATOM     23  C   LIG    1       35.805  20.503 188.979  0.00  0.00    +0.029 C 
ATOM     24  C   LIG    1       36.881  19.914 189.872  0.00  0.00    -0.008 C 
ENDBRANCH  17  19
BRANCH  17  25
ATOM     25  C   LIG    1       39.179  17.589 190.450  0.00  0.00    +0.187 C 
BRANCH  25  26
ATOM     26  C   LIG    1       37.895  17.134 191.113  0.00  0.00    +0.122 A 
ATOM     27  O   LIG    1       37.566  17.571 192.360  0.00  0.00    -0.466 OA
ATOM     28  C   LIG    1       36.384  16.993 192.692  0.00  0.00    +0.195 A 
ATOM     29  C   LIG    1       35.966  16.205 191.677  0.00  0.00    +0.041 A 
ATOM     30  C   LIG    1       36.931  16.294 190.668  0.00  0.00    +0.046 A 
ENDBRANCH  25  26
ENDBRANCH  17  25
ENDBRANCH   1  16
TORSDOF 5
