REMARK VINA RESULT:      -8.7     26.733     27.804
REMARK  Name = ZINC000049483826
REMARK                            x       y       z     vdW  Elec       q    Type
REMARK                         _______ _______ _______ _____ _____    ______ ____
ROOT
ATOM      1  N   LIG    1       25.166  43.281 184.104  0.00  0.00    -0.175 NA
ATOM      2  C   LIG    1       25.862  42.681 185.248  0.00  0.00    +0.123 C 
ATOM      3  C   LIG    1       24.457  42.304 185.783  0.00  0.00    +0.109 C 
ATOM      4  C   LIG    1       23.879  43.358 184.803  0.00  0.00    +0.123 C 
ENDROOT
BRANCH   3   5
ATOM      5  C   LIG    1       24.262  42.684 187.231  0.00  0.00    +0.233 A 
ATOM      6  O   LIG    1       25.217  42.427 188.099  0.00  0.00    -0.337 OA
ATOM      7  N   LIG    1       24.818  42.846 189.280  0.00  0.00    -0.056 NA
ATOM      8  C   LIG    1       23.643  43.343 189.088  0.00  0.00    +0.209 A 
ATOM      9  N   LIG    1       23.270  43.249 187.786  0.00  0.00    -0.191 NA
BRANCH   8  10
ATOM     10  C   LIG    1       22.821  43.929 190.138  0.00  0.00    +0.060 A 
ATOM     11  S   LIG    1       21.483  44.980 189.777  0.00  0.00    -0.093 S 
ATOM     12  C   LIG    1       21.126  45.178 191.454  0.00  0.00    +0.046 A 
ATOM     13  C   LIG    1       21.990  44.473 192.242  0.00  0.00    +0.008 A 
ATOM     14  C   LIG    1       22.948  43.767 191.500  0.00  0.00    +0.019 A 
ENDBRANCH   8  10
ENDBRANCH   3   5
BRANCH   1  15
ATOM     15  S   LIG    1       25.319  42.691 182.578  0.00  0.00    +0.061 S 
ATOM     16  O   LIG    1       26.498  43.226 181.993  0.00  0.00    -0.153 OA
ATOM     17  O   LIG    1       25.239  41.272 182.650  0.00  0.00    -0.153 OA
BRANCH  15  20
ATOM     18  C   LIG    1       24.635  45.749 181.908  0.00  0.00    +0.046 C 
ATOM     19  C   LIG    1       23.649  44.687 181.445  0.00  0.00    -0.024 A 
ATOM     20  C   LIG    1       23.864  43.316 181.691  0.00  0.00    +0.110 A 
ATOM     21  C   LIG    1       22.919  42.393 181.231  0.00  0.00    +0.048 A 
ATOM     22  C   LIG    1       21.783  42.816 180.546  0.00  0.00    +0.043 A 
ATOM     23 CL   LIG    1       20.624  41.654 179.994  0.00  0.00    -0.083 Cl
ATOM     24  C   LIG    1       21.575  44.171 180.307  0.00  0.00    +0.020 A 
ATOM     25  C   LIG    1       22.507  45.098 180.755  0.00  0.00    +0.007 A 
ENDBRANCH  15  20
ENDBRANCH   1  15
TORSDOF 4
