REMARK VINA RESULT:      -7.7     28.982     31.357
REMARK  Name = ZINC000006087399
REMARK                            x       y       z     vdW  Elec       q    Type
REMARK                         _______ _______ _______ _____ _____    ______ ____
ROOT
ATOM      1  C   LIG    1       37.439  20.290 189.849  0.00  0.00    +0.214 C 
ENDROOT
BRANCH   1   7
ATOM      2  C   LIG    1       40.797  20.622 194.154  0.00  0.00    +0.010 C 
ATOM      3  C   LIG    1       39.406  21.296 194.190  0.00  0.00    +0.018 C 
ATOM      4  C   LIG    1       39.018  21.948 192.820  0.00  0.00    +0.115 C 
ATOM      5  C   LIG    1       39.035  20.960 191.651  0.00  0.00    +0.247 C 
ATOM      6  O   LIG    1       39.955  20.328 191.161  0.00  0.00    -0.273 OA
ATOM      7  N   LIG    1       37.779  20.909 191.132  0.00  0.00    -0.215 N 
ATOM      8  C   LIG    1       36.947  21.754 191.808  0.00  0.00    +0.310 C 
ATOM      9  O   LIG    1       35.787  21.983 191.516  0.00  0.00    -0.252 OA
ATOM     10  N   LIG    1       37.604  22.309 192.844  0.00  0.00    -0.285 N 
ATOM     11  H   LIG    1       37.244  23.173 193.261  0.00  0.00    +0.151 HD
ATOM     12  C   LIG    1       39.867  23.200 192.475  0.00  0.00    +0.035 C 
ATOM     13  C   LIG    1       39.781  24.223 193.627  0.00  0.00    +0.003 C 
ATOM     14  C   LIG    1       40.204  23.611 194.968  0.00  0.00    +0.000 C 
ATOM     15  C   LIG    1       39.359  22.371 195.298  0.00  0.00    +0.006 C 
ENDBRANCH   1   7
BRANCH   1  16
ATOM     16  C   LIG    1       37.250  18.785 190.055  0.00  0.00    +0.238 C 
ATOM     17  N   LIG    1       36.651  18.060 189.041  0.00  0.00    -0.267 N 
ATOM     18  O   LIG    1       37.602  18.193 191.068  0.00  0.00    -0.274 OA
BRANCH  17  19
ATOM     19  C   LIG    1       36.233  18.672 187.837  0.00  0.00    +0.010 C 
ATOM     20  C   LIG    1       34.759  19.022 187.768  0.00  0.00    +0.051 C 
ATOM     21  C   LIG    1       34.398  19.234 186.281  0.00  0.00    +0.006 C 
ATOM     22  C   LIG    1       35.395  20.254 185.694  0.00  0.00    +0.004 C 
ATOM     23  C   LIG    1       36.765  19.555 185.539  0.00  0.00    +0.029 C 
ATOM     24  C   LIG    1       37.132  18.922 186.868  0.00  0.00    -0.008 C 
ENDBRANCH  17  19
BRANCH  17  25
ATOM     25  C   LIG    1       36.310  16.644 189.253  0.00  0.00    +0.187 C 
BRANCH  25  26
ATOM     26  C   LIG    1       37.271  15.855 188.385  0.00  0.00    +0.122 A 
ATOM     27  O   LIG    1       38.600  16.153 188.379  0.00  0.00    -0.466 OA
ATOM     28  C   LIG    1       39.201  15.302 187.509  0.00  0.00    +0.195 A 
ATOM     29  C   LIG    1       38.275  14.478 186.971  0.00  0.00    +0.041 A 
ATOM     30  C   LIG    1       37.043  14.831 187.530  0.00  0.00    +0.046 A 
ENDBRANCH  25  26
ENDBRANCH  17  25
ENDBRANCH   1  16
TORSDOF 5
