MODEL 1
REMARK VINA RESULT:     -10.2      0.000      0.000
REMARK  Name = ZINC000000603769
REMARK                            x       y       z     vdW  Elec       q    Type
REMARK                         _______ _______ _______ _____ _____    ______ ____
ROOT
ATOM      1  C   LIG    1       33.099  18.722 185.581  0.00  0.00    +0.139 A 
ATOM      2  N   LIG    1       33.085  18.461 184.251  0.00  0.00    -0.336 N 
ATOM      3  H   LIG    1       33.858  18.625 183.588  0.00  0.00    +0.167 HD
ATOM      4  C   LIG    1       31.897  17.943 183.909  0.00  0.00    +0.093 A 
ATOM      5  C   LIG    1       31.169  17.934 185.074  0.00  0.00    +0.099 A 
ATOM      6  N   LIG    1       31.935  18.396 186.100  0.00  0.00    -0.227 NA
ENDROOT
BRANCH   5   7
ATOM      7  C   LIG    1       29.779  17.531 185.243  0.00  0.00    +0.006 A 
ATOM      8  C   LIG    1       29.355  16.935 186.443  0.00  0.00    +0.059 A 
ATOM      9  C   LIG    1       28.030  16.546 186.564  0.00  0.00    +0.167 A 
ATOM     10  O   LIG    1       27.446  15.951 187.628  0.00  0.00    -0.453 OA
ATOM     11  C   LIG    1       26.026  15.749 187.259  0.00  0.00    +0.466 C 
ATOM     12  O   LIG    1       25.903  16.282 185.881  0.00  0.00    -0.453 OA
ATOM     13  C   LIG    1       27.128  16.739 185.547  0.00  0.00    +0.166 A 
ATOM     14  C   LIG    1       27.507  17.339 184.354  0.00  0.00    +0.050 A 
ATOM     15  C   LIG    1       28.837  17.738 184.211  0.00  0.00    +0.014 A 
ENDBRANCH   5   7
BRANCH   1  19
ATOM     16  C   LIG    1       36.526  20.404 187.538  0.00  0.00    +0.037 A 
ATOM     17  C   LIG    1       35.845  21.105 186.530  0.00  0.00    +0.014 A 
ATOM     18  C   LIG    1       34.738  20.547 185.903  0.00  0.00    +0.012 A 
ATOM     19  C   LIG    1       34.265  19.277 186.260  0.00  0.00    +0.017 A 
ATOM     20  C   LIG    1       34.943  18.580 187.274  0.00  0.00    +0.012 A 
ATOM     21  C   LIG    1       36.052  19.136 187.901  0.00  0.00    +0.014 A 
BRANCH  16  25
ATOM     22  N   LIG    1       38.727  21.500 187.514  0.00  0.00    -0.325 N 
ATOM     23  H   LIG    1       38.764  21.448 186.490  0.00  0.00    +0.145 HD
ATOM     24  H   LIG    1       39.543  21.822 188.050  0.00  0.00    +0.145 HD
ATOM     25  C   LIG    1       37.704  20.961 188.212  0.00  0.00    +0.242 C 
ATOM     26  O   LIG    1       37.861  20.974 189.421  0.00  0.00    -0.270 OA
ENDBRANCH  16  25
ENDBRANCH   1  19
BRANCH   4  27
ATOM     27  C   LIG    1       31.648  17.516 182.547  0.00  0.00    +0.089 A 
ATOM     28  N   LIG    1       32.594  17.794 181.629  0.00  0.00    -0.253 NA
ATOM     29  C   LIG    1       32.423  17.429 180.361  0.00  0.00    +0.111 A 
ATOM     30  C   LIG    1       31.284  16.749 179.939  0.00  0.00    +0.020 A 
ATOM     31  C   LIG    1       30.299  16.432 180.861  0.00  0.00    +0.004 A 
ATOM     32  C   LIG    1       30.491  16.817 182.178  0.00  0.00    +0.030 A 
ENDBRANCH   4  27
TORSDOF 4
ENDMDL
MODEL 2
REMARK VINA RESULT:     -10.2     30.666     31.774
REMARK  Name = ZINC000000603769
REMARK                            x       y       z     vdW  Elec       q    Type
REMARK                         _______ _______ _______ _____ _____    ______ ____
ROOT
ATOM      1  C   LIG    1       21.309  46.673 187.380  0.00  0.00    +0.139 A 
ATOM      2  N   LIG    1       20.285  47.543 187.551  0.00  0.00    -0.336 N 
ATOM      3  H   LIG    1       19.753  47.700 188.421  0.00  0.00    +0.167 HD
ATOM      4  C   LIG    1       20.055  48.194 186.401  0.00  0.00    +0.093 A 
ATOM      5  C   LIG    1       20.951  47.658 185.509  0.00  0.00    +0.099 A 
ATOM      6  N   LIG    1       21.733  46.738 186.137  0.00  0.00    -0.227 NA
ENDROOT
BRANCH   5   7
ATOM      7  C   LIG    1       21.074  47.966 184.090  0.00  0.00    +0.006 A 
ATOM      8  C   LIG    1       20.146  47.448 183.169  0.00  0.00    +0.059 A 
ATOM      9  C   LIG    1       20.303  47.744 181.825  0.00  0.00    +0.167 A 
ATOM     10  O   LIG    1       19.524  47.332 180.799  0.00  0.00    -0.453 OA
ATOM     11  C   LIG    1       20.109  47.923 179.574  0.00  0.00    +0.466 C 
ATOM     12  O   LIG    1       21.293  48.686 180.037  0.00  0.00    -0.453 OA
ATOM     13  C   LIG    1       21.333  48.535 181.378  0.00  0.00    +0.166 A 
ATOM     14  C   LIG    1       22.258  49.076 182.259  0.00  0.00    +0.050 A 
ATOM     15  C   LIG    1       22.120  48.790 183.618  0.00  0.00    +0.014 A 
ENDBRANCH   5   7
BRANCH   1  19
ATOM     16  C   LIG    1       22.739  44.219 190.597  0.00  0.00    +0.037 A 
ATOM     17  C   LIG    1       21.657  45.097 190.773  0.00  0.00    +0.014 A 
ATOM     18  C   LIG    1       21.206  45.887 189.724  0.00  0.00    +0.012 A 
ATOM     19  C   LIG    1       21.810  45.828 188.460  0.00  0.00    +0.017 A 
ATOM     20  C   LIG    1       22.887  44.945 188.282  0.00  0.00    +0.012 A 
ATOM     21  C   LIG    1       23.340  44.155 189.332  0.00  0.00    +0.014 A 
BRANCH  16  25
ATOM     22  N   LIG    1       24.531  42.965 191.720  0.00  0.00    -0.325 N 
ATOM     23  H   LIG    1       25.170  43.137 190.936  0.00  0.00    +0.145 HD
ATOM     24  H   LIG    1       24.802  42.336 192.486  0.00  0.00    +0.145 HD
ATOM     25  C   LIG    1       23.245  43.380 191.687  0.00  0.00    +0.242 C 
ATOM     26  O   LIG    1       22.569  42.985 192.621  0.00  0.00    -0.270 OA
ENDBRANCH  16  25
ENDBRANCH   1  19
BRANCH   4  27
ATOM     27  C   LIG    1       19.046  49.232 186.335  0.00  0.00    +0.089 A 
ATOM     28  N   LIG    1       18.158  49.297 187.347  0.00  0.00    -0.253 NA
ATOM     29  C   LIG    1       17.206  50.227 187.342  0.00  0.00    +0.111 A 
ATOM     30  C   LIG    1       17.096  51.160 186.316  0.00  0.00    +0.020 A 
ATOM     31  C   LIG    1       18.003  51.133 185.268  0.00  0.00    +0.004 A 
ATOM     32  C   LIG    1       18.989  50.160 185.286  0.00  0.00    +0.030 A 
ENDBRANCH   4  27
TORSDOF 4
ENDMDL
MODEL 3
REMARK VINA RESULT:      -9.9      7.725     12.145
REMARK  Name = ZINC000000603769
REMARK                            x       y       z     vdW  Elec       q    Type
REMARK                         _______ _______ _______ _____ _____    ______ ____
ROOT
ATOM      1  C   LIG    1       27.452  16.310 191.812  0.00  0.00    +0.139 A 
ATOM      2  N   LIG    1       26.573  15.912 192.764  0.00  0.00    -0.336 N 
ATOM      3  H   LIG    1       25.603  15.598 192.607  0.00  0.00    +0.167 HD
ATOM      4  C   LIG    1       27.156  15.983 193.969  0.00  0.00    +0.093 A 
ATOM      5  C   LIG    1       28.413  16.478 193.723  0.00  0.00    +0.099 A 
ATOM      6  N   LIG    1       28.586  16.651 192.384  0.00  0.00    -0.227 NA
ENDROOT
BRANCH   5   7
ATOM      7  C   LIG    1       29.437  16.813 194.703  0.00  0.00    +0.006 A 
ATOM      8  C   LIG    1       30.577  16.002 194.844  0.00  0.00    +0.059 A 
ATOM      9  C   LIG    1       31.522  16.338 195.800  0.00  0.00    +0.167 A 
ATOM     10  O   LIG    1       32.667  15.678 196.086  0.00  0.00    -0.453 OA
ATOM     11  C   LIG    1       33.322  16.442 197.173  0.00  0.00    +0.466 C 
ATOM     12  O   LIG    1       32.409  17.575 197.457  0.00  0.00    -0.453 OA
ATOM     13  C   LIG    1       31.375  17.444 196.600  0.00  0.00    +0.166 A 
ATOM     14  C   LIG    1       30.271  18.277 196.478  0.00  0.00    +0.050 A 
ATOM     15  C   LIG    1       29.306  17.957 195.522  0.00  0.00    +0.014 A 
ENDBRANCH   5   7
BRANCH   1  19
ATOM     16  C   LIG    1       26.511  16.409 187.628  0.00  0.00    +0.037 A 
ATOM     17  C   LIG    1       27.488  17.254 188.176  0.00  0.00    +0.014 A 
ATOM     18  C   LIG    1       27.781  17.213 189.533  0.00  0.00    +0.012 A 
ATOM     19  C   LIG    1       27.118  16.326 190.392  0.00  0.00    +0.017 A 
ATOM     20  C   LIG    1       26.145  15.476 189.841  0.00  0.00    +0.012 A 
ATOM     21  C   LIG    1       25.850  15.517 188.484  0.00  0.00    +0.014 A 
BRANCH  16  25
ATOM     22  N   LIG    1       25.572  15.385 185.599  0.00  0.00    -0.325 N 
ATOM     23  H   LIG    1       25.425  14.496 186.091  0.00  0.00    +0.145 HD
ATOM     24  H   LIG    1       25.411  15.453 184.586  0.00  0.00    +0.145 HD
ATOM     25  C   LIG    1       26.171  16.435 186.201  0.00  0.00    +0.242 C 
ATOM     26  O   LIG    1       26.403  17.372 185.457  0.00  0.00    -0.270 OA
ENDBRANCH  16  25
ENDBRANCH   1  19
BRANCH   4  27
ATOM     27  C   LIG    1       26.445  15.549 195.154  0.00  0.00    +0.089 A 
ATOM     28  N   LIG    1       25.147  15.897 195.259  0.00  0.00    -0.253 NA
ATOM     29  C   LIG    1       24.440  15.530 196.325  0.00  0.00    +0.111 A 
ATOM     30  C   LIG    1       24.998  14.777 197.353  0.00  0.00    +0.020 A 
ATOM     31  C   LIG    1       26.326  14.387 197.270  0.00  0.00    +0.004 A 
ATOM     32  C   LIG    1       27.049  14.775 196.154  0.00  0.00    +0.030 A 
ENDBRANCH   4  27
TORSDOF 4
ENDMDL
MODEL 4
REMARK VINA RESULT:      -9.5     30.260     31.382
REMARK  Name = ZINC000000603769
REMARK                            x       y       z     vdW  Elec       q    Type
REMARK                         _______ _______ _______ _____ _____    ______ ____
ROOT
ATOM      1  C   LIG    1       21.627  46.606 186.616  0.00  0.00    +0.139 A 
ATOM      2  N   LIG    1       21.088  47.845 186.528  0.00  0.00    -0.336 N 
ATOM      3  H   LIG    1       20.752  48.423 187.314  0.00  0.00    +0.167 HD
ATOM      4  C   LIG    1       21.052  48.228 185.244  0.00  0.00    +0.093 A 
ATOM      5  C   LIG    1       21.554  47.157 184.544  0.00  0.00    +0.099 A 
ATOM      6  N   LIG    1       21.926  46.175 185.410  0.00  0.00    -0.227 NA
ENDROOT
BRANCH   5   7
ATOM      7  C   LIG    1       21.668  47.024 183.098  0.00  0.00    +0.006 A 
ATOM      8  C   LIG    1       20.531  47.153 182.282  0.00  0.00    +0.059 A 
ATOM      9  C   LIG    1       20.671  47.002 180.912  0.00  0.00    +0.167 A 
ATOM     10  O   LIG    1       19.697  47.079 179.976  0.00  0.00    -0.453 OA
ATOM     11  C   LIG    1       20.361  46.851 178.672  0.00  0.00    +0.466 C 
ATOM     12  O   LIG    1       21.790  46.628 178.996  0.00  0.00    -0.453 OA
ATOM     13  C   LIG    1       21.890  46.740 180.338  0.00  0.00    +0.166 A 
ATOM     14  C   LIG    1       23.037  46.622 181.110  0.00  0.00    +0.050 A 
ATOM     15  C   LIG    1       22.919  46.770 182.493  0.00  0.00    +0.014 A 
ENDBRANCH   5   7
BRANCH   1  19
ATOM     16  C   LIG    1       22.236  44.555 190.335  0.00  0.00    +0.037 A 
ATOM     17  C   LIG    1       23.049  44.300 189.220  0.00  0.00    +0.014 A 
ATOM     18  C   LIG    1       22.840  44.970 188.022  0.00  0.00    +0.012 A 
ATOM     19  C   LIG    1       21.818  45.921 187.891  0.00  0.00    +0.017 A 
ATOM     20  C   LIG    1       21.009  46.180 189.009  0.00  0.00    +0.012 A 
ATOM     21  C   LIG    1       21.217  45.510 190.208  0.00  0.00    +0.014 A 
BRANCH  16  25
ATOM     22  N   LIG    1       23.155  42.724 191.695  0.00  0.00    -0.325 N 
ATOM     23  H   LIG    1       23.517  42.257 190.857  0.00  0.00    +0.145 HD
ATOM     24  H   LIG    1       23.200  42.262 192.611  0.00  0.00    +0.145 HD
ATOM     25  C   LIG    1       22.425  43.858 191.612  0.00  0.00    +0.242 C 
ATOM     26  O   LIG    1       21.944  44.222 192.671  0.00  0.00    -0.270 OA
ENDBRANCH  16  25
ENDBRANCH   1  19
BRANCH   4  27
ATOM     27  C   LIG    1       20.576  49.548 184.884  0.00  0.00    +0.089 A 
ATOM     28  N   LIG    1       19.248  49.700 184.711  0.00  0.00    -0.253 NA
ATOM     29  C   LIG    1       18.749  50.888 184.378  0.00  0.00    +0.111 A 
ATOM     30  C   LIG    1       19.561  52.005 184.207  0.00  0.00    +0.020 A 
ATOM     31  C   LIG    1       20.930  51.887 184.395  0.00  0.00    +0.004 A 
ATOM     32  C   LIG    1       21.435  50.645 184.742  0.00  0.00    +0.030 A 
ENDBRANCH   4  27
TORSDOF 4
ENDMDL
MODEL 5
REMARK VINA RESULT:      -9.3     28.994     30.184
REMARK  Name = ZINC000000603769
REMARK                            x       y       z     vdW  Elec       q    Type
REMARK                         _______ _______ _______ _____ _____    ______ ____
ROOT
ATOM      1  C   LIG    1       22.285  45.981 186.634  0.00  0.00    +0.139 A 
ATOM      2  N   LIG    1       22.060  47.252 186.224  0.00  0.00    -0.336 N 
ATOM      3  H   LIG    1       21.815  48.054 186.824  0.00  0.00    +0.167 HD
ATOM      4  C   LIG    1       22.209  47.326 184.894  0.00  0.00    +0.093 A 
ATOM      5  C   LIG    1       22.494  46.041 184.500  0.00  0.00    +0.099 A 
ATOM      6  N   LIG    1       22.560  45.229 185.591  0.00  0.00    -0.227 NA
ENDROOT
BRANCH   5   7
ATOM      7  C   LIG    1       22.678  45.556 183.139  0.00  0.00    +0.006 A 
ATOM      8  C   LIG    1       23.972  45.372 182.621  0.00  0.00    +0.059 A 
ATOM      9  C   LIG    1       24.113  44.927 181.316  0.00  0.00    +0.167 A 
ATOM     10  O   LIG    1       25.267  44.705 180.647  0.00  0.00    -0.453 OA
ATOM     11  C   LIG    1       24.876  44.236 179.298  0.00  0.00    +0.466 C 
ATOM     12  O   LIG    1       23.394  44.241 179.298  0.00  0.00    -0.453 OA
ATOM     13  C   LIG    1       23.022  44.655 180.528  0.00  0.00    +0.166 A 
ATOM     14  C   LIG    1       21.731  44.810 181.010  0.00  0.00    +0.050 A 
ATOM     15  C   LIG    1       21.565  45.257 182.322  0.00  0.00    +0.014 A 
ENDBRANCH   5   7
BRANCH   1  19
ATOM     16  C   LIG    1       22.135  44.775 190.749  0.00  0.00    +0.037 A 
ATOM     17  C   LIG    1       23.148  44.317 189.891  0.00  0.00    +0.014 A 
ATOM     18  C   LIG    1       23.183  44.714 188.561  0.00  0.00    +0.012 A 
ATOM     19  C   LIG    1       22.217  45.584 188.037  0.00  0.00    +0.017 A 
ATOM     20  C   LIG    1       21.208  46.048 188.898  0.00  0.00    +0.012 A 
ATOM     21  C   LIG    1       21.171  45.650 190.229  0.00  0.00    +0.014 A 
BRANCH  16  25
ATOM     22  N   LIG    1       21.558  45.186 193.104  0.00  0.00    -0.325 N 
ATOM     23  H   LIG    1       21.300  46.156 192.892  0.00  0.00    +0.145 HD
ATOM     24  H   LIG    1       21.589  44.854 194.076  0.00  0.00    +0.145 HD
ATOM     25  C   LIG    1       22.064  44.367 192.156  0.00  0.00    +0.242 C 
ATOM     26  O   LIG    1       22.455  43.293 192.580  0.00  0.00    -0.270 OA
ENDBRANCH  16  25
ENDBRANCH   1  19
BRANCH   4  27
ATOM     27  C   LIG    1       22.084  48.598 184.211  0.00  0.00    +0.089 A 
ATOM     28  N   LIG    1       21.049  48.744 183.360  0.00  0.00    -0.253 NA
ATOM     29  C   LIG    1       20.881  49.888 182.702  0.00  0.00    +0.111 A 
ATOM     30  C   LIG    1       21.746  50.965 182.867  0.00  0.00    +0.020 A 
ATOM     31  C   LIG    1       22.812  50.855 183.747  0.00  0.00    +0.004 A 
ATOM     32  C   LIG    1       22.974  49.658 184.427  0.00  0.00    +0.030 A 
ENDBRANCH   4  27
TORSDOF 4
ENDMDL
MODEL 6
REMARK VINA RESULT:      -9.2     21.783     24.321
REMARK  Name = ZINC000000603769
REMARK                            x       y       z     vdW  Elec       q    Type
REMARK                         _______ _______ _______ _____ _____    ______ ____
ROOT
ATOM      1  C   LIG    1       28.626  21.683 207.689  0.00  0.00    +0.139 A 
ATOM      2  N   LIG    1       28.326  22.399 208.799  0.00  0.00    -0.336 N 
ATOM      3  H   LIG    1       28.149  22.021 209.742  0.00  0.00    +0.167 HD
ATOM      4  C   LIG    1       28.293  23.705 208.493  0.00  0.00    +0.093 A 
ATOM      5  C   LIG    1       28.545  23.755 207.144  0.00  0.00    +0.099 A 
ATOM      6  N   LIG    1       28.772  22.500 206.670  0.00  0.00    -0.227 NA
ENDROOT
BRANCH   5   7
ATOM      7  C   LIG    1       28.553  24.937 206.292  0.00  0.00    +0.006 A 
ATOM      8  C   LIG    1       27.629  25.974 206.509  0.00  0.00    +0.059 A 
ATOM      9  C   LIG    1       27.650  27.076 205.669  0.00  0.00    +0.167 A 
ATOM     10  O   LIG    1       26.838  28.156 205.715  0.00  0.00    -0.453 OA
ATOM     11  C   LIG    1       27.273  29.045 204.613  0.00  0.00    +0.466 C 
ATOM     12  O   LIG    1       28.393  28.330 203.955  0.00  0.00    -0.453 OA
ATOM     13  C   LIG    1       28.557  27.180 204.643  0.00  0.00    +0.166 A 
ATOM     14  C   LIG    1       29.494  26.185 204.409  0.00  0.00    +0.050 A 
ATOM     15  C   LIG    1       29.490  25.065 205.243  0.00  0.00    +0.014 A 
ENDBRANCH   5   7
BRANCH   1  19
ATOM     16  C   LIG    1       29.021  17.410 207.671  0.00  0.00    +0.037 A 
ATOM     17  C   LIG    1       29.390  18.182 206.557  0.00  0.00    +0.014 A 
ATOM     18  C   LIG    1       29.255  19.564 206.576  0.00  0.00    +0.012 A 
ATOM     19  C   LIG    1       28.754  20.229 207.704  0.00  0.00    +0.017 A 
ATOM     20  C   LIG    1       28.392  19.456 208.820  0.00  0.00    +0.012 A 
ATOM     21  C   LIG    1       28.526  18.073 208.802  0.00  0.00    +0.014 A 
BRANCH  16  25
ATOM     22  N   LIG    1       29.310  15.249 206.535  0.00  0.00    -0.325 N 
ATOM     23  H   LIG    1       29.257  15.701 205.616  0.00  0.00    +0.145 HD
ATOM     24  H   LIG    1       29.333  14.224 206.612  0.00  0.00    +0.145 HD
ATOM     25  C   LIG    1       29.142  15.949 207.678  0.00  0.00    +0.242 C 
ATOM     26  O   LIG    1       29.091  15.261 208.683  0.00  0.00    -0.270 OA
ENDBRANCH  16  25
ENDBRANCH   1  19
BRANCH   4  27
ATOM     27  C   LIG    1       28.055  24.694 209.524  0.00  0.00    +0.089 A 
ATOM     28  N   LIG    1       26.914  24.585 210.234  0.00  0.00    -0.253 NA
ATOM     29  C   LIG    1       26.637  25.464 211.194  0.00  0.00    +0.111 A 
ATOM     30  C   LIG    1       27.502  26.509 211.505  0.00  0.00    +0.020 A 
ATOM     31  C   LIG    1       28.693  26.640 210.806  0.00  0.00    +0.004 A 
ATOM     32  C   LIG    1       28.968  25.717 209.811  0.00  0.00    +0.030 A 
ENDBRANCH   4  27
TORSDOF 4
ENDMDL
MODEL 7
REMARK VINA RESULT:      -9.2      4.515      7.806
REMARK  Name = ZINC000000603769
REMARK                            x       y       z     vdW  Elec       q    Type
REMARK                         _______ _______ _______ _____ _____    ______ ____
ROOT
ATOM      1  C   LIG    1       37.690  20.315 190.717  0.00  0.00    +0.139 A 
ATOM      2  N   LIG    1       38.209  19.156 190.244  0.00  0.00    -0.336 N 
ATOM      3  H   LIG    1       39.002  18.632 190.645  0.00  0.00    +0.167 HD
ATOM      4  C   LIG    1       37.527  18.771 189.156  0.00  0.00    +0.093 A 
ATOM      5  C   LIG    1       36.596  19.762 188.957  0.00  0.00    +0.099 A 
ATOM      6  N   LIG    1       36.697  20.694 189.943  0.00  0.00    -0.227 NA
ENDROOT
BRANCH   5   7
ATOM      7  C   LIG    1       35.643  19.868 187.861  0.00  0.00    +0.006 A 
ATOM      8  C   LIG    1       34.510  19.035 187.824  0.00  0.00    +0.059 A 
ATOM      9  C   LIG    1       33.632  19.148 186.758  0.00  0.00    +0.167 A 
ATOM     10  O   LIG    1       32.505  18.431 186.545  0.00  0.00    -0.453 OA
ATOM     11  C   LIG    1       31.929  18.936 185.278  0.00  0.00    +0.466 C 
ATOM     12  O   LIG    1       32.864  19.989 184.817  0.00  0.00    -0.453 OA
ATOM     13  C   LIG    1       33.839  20.056 185.749  0.00  0.00    +0.166 A 
ATOM     14  C   LIG    1       34.936  20.905 185.760  0.00  0.00    +0.050 A 
ATOM     15  C   LIG    1       35.834  20.808 186.825  0.00  0.00    +0.014 A 
ENDBRANCH   5   7
BRANCH   1  19
ATOM     16  C   LIG    1       39.237  22.314 194.183  0.00  0.00    +0.037 A 
ATOM     17  C   LIG    1       39.334  22.889 192.906  0.00  0.00    +0.014 A 
ATOM     18  C   LIG    1       38.831  22.229 191.792  0.00  0.00    +0.012 A 
ATOM     19  C   LIG    1       38.208  20.979 191.909  0.00  0.00    +0.017 A 
ATOM     20  C   LIG    1       38.105  20.408 193.188  0.00  0.00    +0.012 A 
ATOM     21  C   LIG    1       38.610  21.067 194.303  0.00  0.00    +0.014 A 
BRANCH  16  25
ATOM     22  N   LIG    1       40.494  22.307 196.296  0.00  0.00    -0.325 N 
ATOM     23  H   LIG    1       40.616  21.290 196.244  0.00  0.00    +0.145 HD
ATOM     24  H   LIG    1       40.788  22.826 197.134  0.00  0.00    +0.145 HD
ATOM     25  C   LIG    1       39.767  22.980 195.378  0.00  0.00    +0.242 C 
ATOM     26  O   LIG    1       39.593  24.157 195.642  0.00  0.00    -0.270 OA
ENDBRANCH  16  25
ENDBRANCH   1  19
BRANCH   4  27
ATOM     27  C   LIG    1       37.845  17.522 188.495  0.00  0.00    +0.089 A 
ATOM     28  N   LIG    1       39.071  17.406 187.947  0.00  0.00    -0.253 NA
ATOM     29  C   LIG    1       39.422  16.284 187.324  0.00  0.00    +0.111 A 
ATOM     30  C   LIG    1       38.557  15.199 187.222  0.00  0.00    +0.020 A 
ATOM     31  C   LIG    1       37.294  15.278 187.789  0.00  0.00    +0.004 A 
ATOM     32  C   LIG    1       36.943  16.451 188.435  0.00  0.00    +0.030 A 
ENDBRANCH   4  27
TORSDOF 4
ENDMDL
MODEL 8
REMARK VINA RESULT:      -9.1     34.138     36.304
REMARK  Name = ZINC000000603769
REMARK                            x       y       z     vdW  Elec       q    Type
REMARK                         _______ _______ _______ _____ _____    ______ ____
ROOT
ATOM      1  C   LIG    1       21.126  40.720 209.798  0.00  0.00    +0.139 A 
ATOM      2  N   LIG    1       21.609  41.755 209.070  0.00  0.00    -0.336 N 
ATOM      3  H   LIG    1       21.211  42.125 208.192  0.00  0.00    +0.167 HD
ATOM      4  C   LIG    1       22.704  42.250 209.666  0.00  0.00    +0.093 A 
ATOM      5  C   LIG    1       22.895  41.450 210.766  0.00  0.00    +0.099 A 
ATOM      6  N   LIG    1       21.898  40.527 210.845  0.00  0.00    -0.227 NA
ENDROOT
BRANCH   5   7
ATOM      7  C   LIG    1       23.993  41.513 211.722  0.00  0.00    +0.006 A 
ATOM      8  C   LIG    1       24.572  40.331 212.215  0.00  0.00    +0.059 A 
ATOM      9  C   LIG    1       25.602  40.426 213.138  0.00  0.00    +0.167 A 
ATOM     10  O   LIG    1       26.269  39.408 213.728  0.00  0.00    -0.453 OA
ATOM     11  C   LIG    1       27.270  40.035 214.621  0.00  0.00    +0.466 C 
ATOM     12  O   LIG    1       27.069  41.496 214.467  0.00  0.00    -0.453 OA
ATOM     13  C   LIG    1       26.071  41.642 213.570  0.00  0.00    +0.166 A 
ATOM     14  C   LIG    1       25.534  42.829 213.093  0.00  0.00    +0.050 A 
ATOM     15  C   LIG    1       24.495  42.757 212.163  0.00  0.00    +0.014 A 
ENDBRANCH   5   7
BRANCH   1  19
ATOM     16  C   LIG    1       17.600  38.521 208.730  0.00  0.00    +0.037 A 
ATOM     17  C   LIG    1       18.237  38.323 209.965  0.00  0.00    +0.014 A 
ATOM     18  C   LIG    1       19.379  39.041 210.297  0.00  0.00    +0.012 A 
ATOM     19  C   LIG    1       19.925  39.984 209.416  0.00  0.00    +0.017 A 
ATOM     20  C   LIG    1       19.282  40.187 208.183  0.00  0.00    +0.012 A 
ATOM     21  C   LIG    1       18.140  39.469 207.850  0.00  0.00    +0.014 A 
BRANCH  16  25
ATOM     22  N   LIG    1       16.456  36.460 208.031  0.00  0.00    -0.325 N 
ATOM     23  H   LIG    1       17.352  35.966 207.951  0.00  0.00    +0.145 HD
ATOM     24  H   LIG    1       15.584  36.014 207.719  0.00  0.00    +0.145 HD
ATOM     25  C   LIG    1       16.399  37.773 208.346  0.00  0.00    +0.242 C 
ATOM     26  O   LIG    1       15.283  38.258 208.267  0.00  0.00    -0.270 OA
ENDBRANCH  16  25
ENDBRANCH   1  19
BRANCH   4  27
ATOM     27  C   LIG    1       23.378  43.409 209.118  0.00  0.00    +0.089 A 
ATOM     28  N   LIG    1       22.778  44.606 209.278  0.00  0.00    -0.253 NA
ATOM     29  C   LIG    1       23.346  45.708 208.796  0.00  0.00    +0.111 A 
ATOM     30  C   LIG    1       24.565  45.674 208.126  0.00  0.00    +0.020 A 
ATOM     31  C   LIG    1       25.218  44.462 207.959  0.00  0.00    +0.004 A 
ATOM     32  C   LIG    1       24.615  43.323 208.467  0.00  0.00    +0.030 A 
ENDBRANCH   4  27
TORSDOF 4
ENDMDL
MODEL 9
REMARK VINA RESULT:      -9.0     10.916     14.063
REMARK  Name = ZINC000000603769
REMARK                            x       y       z     vdW  Elec       q    Type
REMARK                         _______ _______ _______ _____ _____    ______ ____
ROOT
ATOM      1  C   LIG    1       27.124  14.995 196.270  0.00  0.00    +0.139 A 
ATOM      2  N   LIG    1       26.071  14.820 195.435  0.00  0.00    -0.336 N 
ATOM      3  H   LIG    1       26.106  14.795 194.405  0.00  0.00    +0.167 HD
ATOM      4  C   LIG    1       24.948  14.678 196.154  0.00  0.00    +0.093 A 
ATOM      5  C   LIG    1       25.349  14.813 197.461  0.00  0.00    +0.099 A 
ATOM      6  N   LIG    1       26.698  14.984 197.514  0.00  0.00    -0.227 NA
ENDROOT
BRANCH   5   7
ATOM      7  C   LIG    1       24.504  14.810 198.647  0.00  0.00    +0.006 A 
ATOM      8  C   LIG    1       24.129  16.023 199.253  0.00  0.00    +0.059 A 
ATOM      9  C   LIG    1       23.339  15.985 200.391  0.00  0.00    +0.167 A 
ATOM     10  O   LIG    1       22.892  17.038 201.113  0.00  0.00    -0.453 OA
ATOM     11  C   LIG    1       22.091  16.468 202.220  0.00  0.00    +0.466 C 
ATOM     12  O   LIG    1       22.161  14.999 202.035  0.00  0.00    -0.453 OA
ATOM     13  C   LIG    1       22.911  14.797 200.931  0.00  0.00    +0.166 A 
ATOM     14  C   LIG    1       23.248  13.582 200.351  0.00  0.00    +0.050 A 
ATOM     15  C   LIG    1       24.043  13.597 199.204  0.00  0.00    +0.014 A 
ENDBRANCH   5   7
BRANCH   1  19
ATOM     16  C   LIG    1       31.120  15.509 194.794  0.00  0.00    +0.037 A 
ATOM     17  C   LIG    1       30.015  16.037 194.108  0.00  0.00    +0.014 A 
ATOM     18  C   LIG    1       28.726  15.862 194.596  0.00  0.00    +0.012 A 
ATOM     19  C   LIG    1       28.491  15.160 195.787  0.00  0.00    +0.017 A 
ATOM     20  C   LIG    1       29.598  14.637 196.476  0.00  0.00    +0.012 A 
ATOM     21  C   LIG    1       30.887  14.812 195.988  0.00  0.00    +0.014 A 
BRANCH  16  25
ATOM     22  N   LIG    1       32.969  14.912 193.288  0.00  0.00    -0.325 N 
ATOM     23  H   LIG    1       32.427  14.133 192.899  0.00  0.00    +0.145 HD
ATOM     24  H   LIG    1       33.955  15.042 193.030  0.00  0.00    +0.145 HD
ATOM     25  C   LIG    1       32.491  15.669 194.300  0.00  0.00    +0.242 C 
ATOM     26  O   LIG    1       33.296  16.464 194.753  0.00  0.00    -0.270 OA
ENDBRANCH  16  25
ENDBRANCH   1  19
BRANCH   4  27
ATOM     27  C   LIG    1       23.685  14.412 195.497  0.00  0.00    +0.089 A 
ATOM     28  N   LIG    1       23.454  15.039 194.326  0.00  0.00    -0.253 NA
ATOM     29  C   LIG    1       22.311  14.838 193.674  0.00  0.00    +0.111 A 
ATOM     30  C   LIG    1       21.328  13.981 194.161  0.00  0.00    +0.020 A 
ATOM     31  C   LIG    1       21.541  13.308 195.355  0.00  0.00    +0.004 A 
ATOM     32  C   LIG    1       22.736  13.525 196.021  0.00  0.00    +0.030 A 
ENDBRANCH   4  27
TORSDOF 4
ENDMDL
