REMARK VINA RESULT:      -8.9      6.496      8.955
REMARK  Name = ZINC000049483826
REMARK                            x       y       z     vdW  Elec       q    Type
REMARK                         _______ _______ _______ _____ _____    ______ ____
ROOT
ATOM      1  N   LIG    1       35.017  19.715 186.061  0.00  0.00    -0.175 NA
ATOM      2  C   LIG    1       33.689  20.254 185.749  0.00  0.00    +0.123 C 
ATOM      3  C   LIG    1       33.151  18.826 186.016  0.00  0.00    +0.109 C 
ATOM      4  C   LIG    1       34.608  18.322 185.850  0.00  0.00    +0.123 C 
ENDROOT
BRANCH   3   5
ATOM      5  C   LIG    1       32.234  18.333 184.923  0.00  0.00    +0.233 A 
ATOM      6  O   LIG    1       32.677  18.284 183.684  0.00  0.00    -0.337 OA
ATOM      7  N   LIG    1       31.707  17.827 182.923  0.00  0.00    -0.056 NA
ATOM      8  C   LIG    1       30.716  17.614 183.721  0.00  0.00    +0.209 A 
ATOM      9  N   LIG    1       31.032  17.931 185.003  0.00  0.00    -0.191 NA
BRANCH   8  10
ATOM     10  C   LIG    1       29.421  17.099 183.298  0.00  0.00    +0.060 A 
ATOM     11  S   LIG    1       29.244  15.509 182.616  0.00  0.00    -0.093 S 
ATOM     12  C   LIG    1       27.543  15.728 182.428  0.00  0.00    +0.046 A 
ATOM     13  C   LIG    1       27.139  16.957 182.867  0.00  0.00    +0.008 A 
ATOM     14  C   LIG    1       28.200  17.732 183.358  0.00  0.00    +0.019 A 
ENDBRANCH   8  10
ENDBRANCH   3   5
BRANCH   1  15
ATOM     15  S   LIG    1       35.875  20.203 187.375  0.00  0.00    +0.061 S 
ATOM     16  O   LIG    1       36.825  21.179 186.968  0.00  0.00    -0.153 OA
ATOM     17  O   LIG    1       34.947  20.605 188.376  0.00  0.00    -0.153 OA
BRANCH  15  20
ATOM     18  C   LIG    1       38.479  18.869 186.068  0.00  0.00    +0.046 C 
ATOM     19  C   LIG    1       37.885  18.199 187.298  0.00  0.00    -0.024 A 
ATOM     20  C   LIG    1       36.742  18.712 187.944  0.00  0.00    +0.110 A 
ATOM     21  C   LIG    1       36.253  18.050 189.075  0.00  0.00    +0.048 A 
ATOM     22  C   LIG    1       36.876  16.901 189.554  0.00  0.00    +0.043 A 
ATOM     23 CL   LIG    1       36.246  16.095 190.950  0.00  0.00    -0.083 Cl
ATOM     24  C   LIG    1       38.004  16.398 188.912  0.00  0.00    +0.020 A 
ATOM     25  C   LIG    1       38.503  17.048 187.790  0.00  0.00    +0.007 A 
ENDBRANCH  15  20
ENDBRANCH   1  15
TORSDOF 4
