REMARK VINA RESULT:      -7.6     21.390     23.109
REMARK  Name = ZINC000022625070
REMARK                            x       y       z     vdW  Elec       q    Type
REMARK                         _______ _______ _______ _____ _____    ______ ____
ROOT
ATOM      1  C   LIG    1       32.793  19.156 185.751  0.00  0.00    +0.171 A 
ATOM      2  C   LIG    1       32.066  18.563 184.719  0.00  0.00    +0.032 A 
ATOM      3  C   LIG    1       32.296  18.437 183.223  0.00  0.00    +0.046 C 
ATOM      4  C   LIG    1       31.628  17.120 182.737  0.00  0.00    +0.040 C 
ATOM      5  C   LIG    1       30.194  16.981 183.270  0.00  0.00    -0.036 A 
ATOM      6  C   LIG    1       29.884  17.426 184.566  0.00  0.00    +0.027 A 
ATOM      7  C   LIG    1       28.607  17.222 185.092  0.00  0.00    +0.057 A 
ATOM      8  C   LIG    1       27.639  16.593 184.310  0.00  0.00    +0.121 A 
ATOM      9  C   LIG    1       27.933  16.165 183.018  0.00  0.00    +0.046 A 
ATOM     10  C   LIG    1       29.212  16.355 182.503  0.00  0.00    +0.008 A 
ATOM     11  C   LIG    1       30.936  18.109 185.278  0.00  0.00    +0.171 A 
ATOM     12  O   LIG    1       30.976  18.413 186.582  0.00  0.00    -0.354 OA
ATOM     13  N   LIG    1       32.108  19.048 186.868  0.00  0.00    -0.073 NA
ENDROOT
BRANCH   1  16
ATOM     14  N   LIG    1       35.221  19.045 185.822  0.00  0.00    -0.307 N 
ATOM     15  H   LIG    1       35.058  18.067 186.090  0.00  0.00    +0.149 HD
ATOM     16  C   LIG    1       34.102  19.811 185.643  0.00  0.00    +0.266 C 
ATOM     17  O   LIG    1       34.262  21.008 185.410  0.00  0.00    -0.268 OA
BRANCH  14  18
ATOM     18  C   LIG    1       36.559  19.586 185.965  0.00  0.00    +0.070 C 
ATOM     19  C   LIG    1       37.271  19.325 184.638  0.00  0.00    +0.028 C 
BRANCH  18  20
ATOM     20  C   LIG    1       37.227  18.896 187.168  0.00  0.00    +0.023 C 
BRANCH  20  21
ATOM     21  C   LIG    1       36.379  17.823 187.888  0.00  0.00    +0.017 C 
BRANCH  21  22
ATOM     22  C   LIG    1       37.263  16.556 187.982  0.00  0.00    +0.084 C 
BRANCH  22  23
ATOM     23  N   LIG    1       37.777  16.396 189.368  0.00  0.00    -0.303 NA
BRANCH  23  25
ATOM     24  C   LIG    1       39.873  15.843 188.394  0.00  0.00    +0.020 C 
ATOM     25  C   LIG    1       39.223  16.688 189.492  0.00  0.00    +0.081 C 
ENDBRANCH  23  25
BRANCH  23  26
ATOM     26  C   LIG    1       36.950  17.075 190.384  0.00  0.00    +0.081 C 
ATOM     27  C   LIG    1       36.148  15.958 191.062  0.00  0.00    +0.020 C 
ENDBRANCH  23  26
ENDBRANCH  22  23
ENDBRANCH  21  22
ENDBRANCH  20  21
ENDBRANCH  18  20
ENDBRANCH  14  18
ENDBRANCH   1  16
BRANCH   8  28
ATOM     28  O   LIG    1       26.361  16.369 184.770  0.00  0.00    -0.495 OA
ATOM     29  C   LIG    1       25.983  16.284 186.163  0.00  0.00    +0.277 C 
ENDBRANCH   8  28
TORSDOF 9
