REMARK VINA RESULT:      -7.9      3.036      8.336
REMARK  Name = ZINC000049421769
REMARK                            x       y       z     vdW  Elec       q    Type
REMARK                         _______ _______ _______ _____ _____    ______ ____
ROOT
ATOM      1  C   LIG    1       19.813  46.849 189.342  0.00  0.00    +0.088 C 
ATOM      2  C   LIG    1       20.585  46.849 188.041  0.00  0.00    +0.135 A 
ATOM      3  N   LIG    1       20.402  47.661 186.975  0.00  0.00    -0.276 N 
ATOM      4  C   LIG    1       19.488  48.740 186.693  0.00  0.00    +0.075 A 
ATOM      5  C   LIG    1       18.472  49.147 187.574  0.00  0.00    +0.028 A 
ATOM      6  C   LIG    1       17.652  50.209 187.222  0.00  0.00    +0.002 A 
ATOM      7  C   LIG    1       17.835  50.865 186.003  0.00  0.00    +0.002 A 
ATOM      8  C   LIG    1       18.833  50.456 185.130  0.00  0.00    +0.030 A 
ATOM      9  C   LIG    1       19.670  49.382 185.454  0.00  0.00    +0.089 A 
ATOM     10  N   LIG    1       20.642  48.993 184.535  0.00  0.00    -0.235 NA
ATOM     11  C   LIG    1       21.427  48.007 184.827  0.00  0.00    +0.143 A 
ATOM     12  C   LIG    1       21.330  47.293 186.075  0.00  0.00    +0.194 A 
ATOM     13  N   LIG    1       22.041  46.302 186.550  0.00  0.00    -0.127 NA
ATOM     14  N   LIG    1       21.562  46.033 187.789  0.00  0.00    -0.134 NA
ENDROOT
BRANCH  11  15
ATOM     15  S   LIG    1       22.645  47.537 183.672  0.00  0.00    -0.093 S 
BRANCH  15  16
ATOM     16  C   LIG    1       21.812  47.783 182.051  0.00  0.00    +0.172 C 
BRANCH  16  17
ATOM     17  C   LIG    1       22.063  46.517 181.255  0.00  0.00    +0.227 C 
ATOM     18  N   LIG    1       21.275  45.434 181.543  0.00  0.00    -0.284 N 
ATOM     19  H   LIG    1       20.648  45.523 182.353  0.00  0.00    +0.155 HD
ATOM     20  O   LIG    1       22.934  46.435 180.415  0.00  0.00    -0.275 OA
BRANCH  18  21
ATOM     21  C   LIG    1       21.398  44.153 180.958  0.00  0.00    +0.039 A 
ATOM     22  C   LIG    1       20.623  43.871 179.822  0.00  0.00    -0.029 A 
ATOM     23  C   LIG    1       19.639  44.879 179.251  0.00  0.00    +0.045 C 
ATOM     24  C   LIG    1       20.749  42.621 179.222  0.00  0.00    +0.005 A 
ATOM     25  C   LIG    1       21.627  41.673 179.741  0.00  0.00    +0.001 A 
ATOM     26  C   LIG    1       22.393  41.967 180.865  0.00  0.00    +0.005 A 
ATOM     27  C   LIG    1       22.295  43.209 181.485  0.00  0.00    -0.029 A 
ATOM     28  C   LIG    1       23.154  43.495 182.705  0.00  0.00    +0.045 C 
ENDBRANCH  18  21
ENDBRANCH  16  17
ENDBRANCH  15  16
ENDBRANCH  11  15
TORSDOF 4
