REMARK VINA RESULT:      -6.3      1.755      2.098
REMARK  Name = ZINC000000622877
REMARK                            x       y       z     vdW  Elec       q    Type
REMARK                         _______ _______ _______ _____ _____    ______ ____
ROOT
ATOM      1  O   LIG    1       29.910  24.700 206.997  0.00  0.00    -0.274 OA
ATOM      2  C   LIG    1       28.919  24.004 207.153  0.00  0.00    +0.235 C 
ATOM      3  N   LIG    1       27.681  24.520 206.922  0.00  0.00    -0.219 N 
ATOM      4  H   LIG    1       26.852  23.904 206.869  0.00  0.00    +0.176 HD
ENDROOT
BRANCH   3   5
ATOM      5  N   LIG    1       27.492  25.912 206.474  0.00  0.00    -0.217 N 
ATOM      6  C   LIG    1       27.530  27.005 207.357  0.00  0.00    +0.079 A 
ATOM      7  C   LIG    1       27.512  28.172 206.664  0.00  0.00    +0.078 A 
ATOM      8  S   LIG    1       27.407  27.949 204.948  0.00  0.00    -0.033 S 
ATOM      9  C   LIG    1       27.397  26.223 205.136  0.00  0.00    +0.308 A 
ATOM     10  O   LIG    1       27.302  25.369 204.228  0.00  0.00    -0.258 OA
BRANCH   6  11
ATOM     11  C   LIG    1       27.576  26.828 208.801  0.00  0.00    +0.001 A 
ATOM     12  C   LIG    1       28.583  27.427 209.569  0.00  0.00    +0.010 A 
ATOM     13  C   LIG    1       28.629  27.248 210.948  0.00  0.00    +0.001 A 
ATOM     14  C   LIG    1       27.667  26.468 211.581  0.00  0.00    +0.000 A 
ATOM     15  C   LIG    1       26.660  25.868 210.832  0.00  0.00    +0.001 A 
ATOM     16  C   LIG    1       26.615  26.047 209.454  0.00  0.00    +0.010 A 
ENDBRANCH   6  11
ENDBRANCH   3   5
BRANCH   2  17
ATOM     17  C   LIG    1       29.016  22.556 207.592  0.00  0.00    +0.132 C 
BRANCH  17  18
ATOM     18  C   LIG    1       28.343  22.429 208.953  0.00  0.00    -0.039 A 
ATOM     19  C   LIG    1       28.981  22.893 210.103  0.00  0.00    +0.005 A 
ATOM     20  C   LIG    1       28.356  22.792 211.342  0.00  0.00    +0.015 A 
ATOM     21  C   LIG    1       27.088  22.224 211.442  0.00  0.00    +0.018 A 
ATOM     22 BR   LIG    1       26.239  22.090 213.127  0.00  0.00    -0.050 Br
ATOM     23  C   LIG    1       26.449  21.757 210.297  0.00  0.00    +0.015 A 
ATOM     24  C   LIG    1       27.075  21.856 209.058  0.00  0.00    +0.005 A 
ENDBRANCH  17  18
ENDBRANCH   2  17
TORSDOF 4
