REMARK VINA RESULT:      -7.1     23.273     25.749
REMARK  Name = ZINC000000538144
REMARK                            x       y       z     vdW  Elec       q    Type
REMARK                         _______ _______ _______ _____ _____    ______ ____
ROOT
ATOM      1  C   LIG    1       28.541  44.183 211.715  0.00  0.00    +0.163 A 
ATOM      2  C   LIG    1       27.921  42.927 211.419  0.00  0.00    +0.162 A 
ATOM      3  C   LIG    1       26.858  42.856 210.534  0.00  0.00    +0.059 A 
ATOM      4  C   LIG    1       26.394  44.030 209.915  0.00  0.00    +0.007 A 
ATOM      5  C   LIG    1       25.370  44.298 208.974  0.00  0.00    -0.018 A 
ATOM      6  C   LIG    1       25.372  45.634 208.715  0.00  0.00    +0.017 A 
ATOM      7  C   LIG    1       24.492  46.456 207.799  0.00  0.00    +0.063 C 
ATOM      8  N   LIG    1       26.365  46.214 209.479  0.00  0.00    -0.358 N 
ATOM      9  H   LIG    1       26.596  47.219 209.499  0.00  0.00    +0.166 HD
ATOM     10  C   LIG    1       27.009  45.239 210.218  0.00  0.00    +0.051 A 
ATOM     11  C   LIG    1       28.083  45.349 211.114  0.00  0.00    +0.075 A 
ENDROOT
BRANCH   1  13
ATOM     12  C   LIG    1       30.673  45.222 212.599  0.00  0.00    +0.277 C 
ATOM     13  O   LIG    1       29.608  44.244 212.610  0.00  0.00    -0.491 OA
ENDBRANCH   1  13
BRANCH   2  14
ATOM     14  O   LIG    1       28.311  41.703 211.968  0.00  0.00    -0.491 OA
ATOM     15  C   LIG    1       27.475  40.692 212.572  0.00  0.00    +0.277 C 
ENDBRANCH   2  14
BRANCH   5  16
ATOM     16  C   LIG    1       24.458  43.254 208.365  0.00  0.00    +0.053 C 
BRANCH  16  17
ATOM     17  C   LIG    1       23.134  43.372 209.136  0.00  0.00    +0.089 C 
BRANCH  17  18
ATOM     18  N   LIG    1       23.190  42.397 210.260  0.00  0.00    -0.299 NA
ATOM     19  C   LIG    1       23.356  40.968 209.828  0.00  0.00    +0.103 C 
ATOM     20  C   LIG    1       22.081  40.440 209.111  0.00  0.00    +0.120 C 
ATOM     21  N   LIG    1       20.928  40.597 210.035  0.00  0.00    -0.327 N 
ATOM     22  C   LIG    1       20.722  42.017 210.411  0.00  0.00    +0.120 C 
ATOM     23  C   LIG    1       21.996  42.502 211.153  0.00  0.00    +0.103 C 
BRANCH  21  24
ATOM     24  C   LIG    1       19.799  39.834 209.664  0.00  0.00    +0.030 A 
ATOM     25  C   LIG    1       19.248  38.861 210.509  0.00  0.00    +0.023 A 
ATOM     26  C   LIG    1       18.130  38.142 210.098  0.00  0.00    +0.002 A 
ATOM     27  C   LIG    1       17.558  38.384 208.851  0.00  0.00    +0.000 A 
ATOM     28  C   LIG    1       18.108  39.348 208.010  0.00  0.00    +0.002 A 
ATOM     29  C   LIG    1       19.227  40.068 208.411  0.00  0.00    +0.023 A 
ENDBRANCH  21  24
ENDBRANCH  17  18
ENDBRANCH  16  17
ENDBRANCH   5  16
TORSDOF 6
