REMARK VINA RESULT:      -7.9     23.488     25.047
REMARK  Name = ZINC000006083105
REMARK                            x       y       z     vdW  Elec       q    Type
REMARK                         _______ _______ _______ _____ _____    ______ ____
ROOT
ATOM      1  C   LIG    1       22.177  42.460 210.004  0.00  0.00    +0.083 C 
ENDROOT
BRANCH   1   2
ATOM      2  C   LIG    1       21.130  41.375 209.850  0.00  0.00    +0.111 A 
ATOM      3  N   LIG    1       20.472  41.337 208.638  0.00  0.00    -0.310 N 
ATOM      4  H   LIG    1       20.658  42.054 207.924  0.00  0.00    +0.170 HD
ATOM      5  C   LIG    1       19.488  40.439 208.358  0.00  0.00    +0.260 A 
ATOM      6  O   LIG    1       18.982  40.543 207.241  0.00  0.00    -0.267 OA
ATOM      7  C   LIG    1       19.159  39.502 209.392  0.00  0.00    +0.075 A 
ATOM      8  C   LIG    1       18.201  38.456 209.412  0.00  0.00    -0.023 A 
ATOM      9  C   LIG    1       17.269  38.118 208.261  0.00  0.00    +0.037 C 
ATOM     10  C   LIG    1       16.686  36.715 208.513  0.00  0.00    +0.005 C 
ATOM     11  C   LIG    1       16.152  36.574 209.951  0.00  0.00    +0.005 C 
ATOM     12  C   LIG    1       17.297  36.624 210.979  0.00  0.00    +0.043 C 
ATOM     13  C   LIG    1       18.178  37.796 210.609  0.00  0.00    -0.004 A 
ATOM     14  S   LIG    1       19.342  38.429 211.727  0.00  0.00    -0.073 S 
ATOM     15  C   LIG    1       19.852  39.603 210.573  0.00  0.00    +0.116 A 
ATOM     16  N   LIG    1       20.844  40.557 210.794  0.00  0.00    -0.227 NA
ENDBRANCH   1   2
BRANCH   1  17
ATOM     17  C   LIG    1       23.330  42.151 209.011  0.00  0.00    +0.104 C 
BRANCH  17  20
ATOM     18  N   LIG    1       23.686  44.572 209.235  0.00  0.00    -0.285 N 
ATOM     19  H   LIG    1       22.705  44.564 209.535  0.00  0.00    +0.155 HD
ATOM     20  C   LIG    1       24.248  43.355 208.963  0.00  0.00    +0.218 C 
ATOM     21  O   LIG    1       25.422  43.257 208.669  0.00  0.00    -0.275 OA
BRANCH  18  25
ATOM     22  C   LIG    1       25.504  48.340 209.119  0.00  0.00    +0.121 A 
ATOM     23  C   LIG    1       25.122  47.781 210.342  0.00  0.00    +0.047 A 
ATOM     24  C   LIG    1       24.525  46.523 210.362  0.00  0.00    +0.027 A 
ATOM     25  C   LIG    1       24.321  45.837 209.163  0.00  0.00    +0.034 A 
ATOM     26  C   LIG    1       24.698  46.400 207.940  0.00  0.00    +0.027 A 
ATOM     27  C   LIG    1       25.294  47.657 207.922  0.00  0.00    +0.047 A 
BRANCH  22  28
ATOM     28  O   LIG    1       26.102  49.580 209.038  0.00  0.00    -0.492 OA
BRANCH  28  30
ATOM     29  C   LIG    1       27.935  50.133 210.405  0.00  0.00    +0.048 C 
ATOM     30  C   LIG    1       26.450  50.403 210.170  0.00  0.00    +0.225 C 
ENDBRANCH  28  30
ENDBRANCH  22  28
ENDBRANCH  18  25
ENDBRANCH  17  20
ENDBRANCH   1  17
TORSDOF 6
