REMARK VINA RESULT:      -6.5     24.956     26.730
REMARK  Name = ZINC000070728784
REMARK                            x       y       z     vdW  Elec       q    Type
REMARK                         _______ _______ _______ _____ _____    ______ ____
ROOT
ATOM      1  C   LIG    1       18.427  39.582 208.600  0.00  0.00    +0.251 C 
ATOM      2  N   LIG    1       19.219  39.750 209.713  0.00  0.00    -0.261 N 
ATOM      3  H   LIG    1       18.751  39.598 210.615  0.00  0.00    +0.157 HD
ATOM      4  O   LIG    1       18.949  39.536 207.494  0.00  0.00    -0.270 OA
ENDROOT
BRANCH   1   6
ATOM      5  C   LIG    1       16.254  38.282 208.585  0.00  0.00    +0.020 A 
ATOM      6  C   LIG    1       16.983  39.483 208.783  0.00  0.00    +0.050 A 
ATOM      7  C   LIG    1       16.284  40.629 209.193  0.00  0.00    +0.014 A 
ATOM      8  C   LIG    1       14.922  40.587 209.459  0.00  0.00    +0.001 A 
ATOM      9  C   LIG    1       14.226  39.389 209.314  0.00  0.00    +0.001 A 
ATOM     10  C   LIG    1       14.885  38.247 208.883  0.00  0.00    +0.015 A 
BRANCH   5  11
ATOM     11  S   LIG    1       16.960  36.812 207.957  0.00  0.00    -0.122 S 
BRANCH  11  13
ATOM     12  C   LIG    1       15.873  34.377 207.607  0.00  0.00    +0.019 C 
ATOM     13  C   LIG    1       15.885  35.502 208.642  0.00  0.00    +0.045 C 
ATOM     14  C   LIG    1       16.535  35.057 209.952  0.00  0.00    +0.019 C 
ENDBRANCH  11  13
ENDBRANCH   5  11
ENDBRANCH   1   6
BRANCH   2  15
ATOM     15  C   LIG    1       20.589  40.032 209.767  0.00  0.00    +0.165 A 
ATOM     16  S   LIG    1       21.547  39.047 210.807  0.00  0.00    -0.060 S 
ATOM     17  C   LIG    1       22.898  39.986 210.333  0.00  0.00    +0.073 A 
ATOM     18  C   LIG    1       22.538  40.955 209.448  0.00  0.00    +0.064 A 
ATOM     19  N   LIG    1       21.211  40.979 209.126  0.00  0.00    -0.228 NA
BRANCH  18  20
ATOM     20  C   LIG    1       23.508  41.951 208.838  0.00  0.00    +0.140 C 
BRANCH  20  21
ATOM     21  N   LIG    1       23.685  43.073 209.811  0.00  0.00    -0.292 NA
ATOM     22  C   LIG    1       23.160  44.388 209.316  0.00  0.00    +0.113 C 
ATOM     23  C   LIG    1       24.068  44.919 208.178  0.00  0.00    +0.175 C 
ATOM     24  O   LIG    1       25.389  45.042 208.706  0.00  0.00    -0.377 OA
ATOM     25  C   LIG    1       25.949  43.786 209.083  0.00  0.00    +0.175 C 
ATOM     26  C   LIG    1       25.099  43.226 210.251  0.00  0.00    +0.113 C 
ENDBRANCH  20  21
ENDBRANCH  18  20
ENDBRANCH   2  15
TORSDOF 6
