REMARK VINA RESULT:      -8.2     30.051     31.128
REMARK  Name = ZINC000000607845
REMARK                            x       y       z     vdW  Elec       q    Type
REMARK                         _______ _______ _______ _____ _____    ______ ____
ROOT
ATOM      1  C   LIG    1       21.025  48.125 183.753  0.00  0.00    -0.021 A 
ATOM      2  C   LIG    1       20.322  48.448 184.938  0.00  0.00    +0.003 A 
ATOM      3  C   LIG    1       19.988  47.726 186.096  0.00  0.00    +0.014 A 
ATOM      4  C   LIG    1       19.291  48.353 187.120  0.00  0.00    -0.045 A 
ATOM      5  C   LIG    1       18.906  49.712 186.993  0.00  0.00    +0.006 A 
ATOM      6  C   LIG    1       19.217  50.432 185.852  0.00  0.00    +0.026 A 
ATOM      7  C   LIG    1       19.928  49.776 184.839  0.00  0.00    +0.047 A 
ATOM      8  N   LIG    1       20.371  50.243 183.618  0.00  0.00    -0.360 N 
ATOM      9  H   LIG    1       20.222  51.200 183.258  0.00  0.00    +0.165 HD
ATOM     10  C   LIG    1       21.039  49.232 182.964  0.00  0.00    +0.087 A 
ENDROOT
BRANCH   1  11
ATOM     11  C   LIG    1       21.660  46.787 183.422  0.00  0.00    +0.056 C 
BRANCH  11  14
ATOM     12  C   LIG    1       23.000  44.580 184.664  0.00  0.00    +0.105 C 
ATOM     13  N   LIG    1       23.842  45.630 184.061  0.00  0.00    -0.302 NA
ATOM     14  C   LIG    1       23.185  46.916 183.687  0.00  0.00    +0.061 C 
ATOM     15  C   LIG    1       23.894  47.329 182.379  0.00  0.00    +0.020 C 
ATOM     16  C   LIG    1       25.147  46.456 182.369  0.00  0.00    +0.017 C 
ATOM     17  C   LIG    1       24.604  45.141 182.919  0.00  0.00    +0.084 C 
ENDBRANCH  11  14
ENDBRANCH   1  11
BRANCH   4  18
ATOM     18  C   LIG    1       18.963  47.592 188.388  0.00  0.00    +0.058 C 
BRANCH  18  19
ATOM     19  C   LIG    1       20.281  46.936 188.833  0.00  0.00    +0.176 C 
BRANCH  19  20
ATOM     20  S   LIG    1       20.343  46.413 190.530  0.00  0.00    -0.003 S 
ATOM     21  O   LIG    1       19.130  45.732 190.835  0.00  0.00    -0.169 OA
ATOM     22  O   LIG    1       20.671  47.541 191.334  0.00  0.00    -0.169 OA
BRANCH  20  23
ATOM     23  C   LIG    1       21.708  45.239 190.566  0.00  0.00    +0.088 A 
ATOM     24  C   LIG    1       22.419  44.941 189.400  0.00  0.00    +0.027 A 
ATOM     25  C   LIG    1       23.474  44.033 189.426  0.00  0.00    +0.002 A 
ATOM     26  C   LIG    1       23.825  43.408 190.617  0.00  0.00    +0.000 A 
ATOM     27  C   LIG    1       23.117  43.686 191.781  0.00  0.00    +0.002 A 
ATOM     28  C   LIG    1       22.062  44.594 191.754  0.00  0.00    +0.027 A 
ENDBRANCH  20  23
ENDBRANCH  19  20
ENDBRANCH  18  19
ENDBRANCH   4  18
TORSDOF 6
