REMARK VINA RESULT:      -8.0     23.900     26.552
REMARK  Name = ZINC000186872603
REMARK                            x       y       z     vdW  Elec       q    Type
REMARK                         _______ _______ _______ _____ _____    ______ ____
ROOT
ATOM      1  N   LIG    1       23.255  41.354 209.666  0.00  0.00    -0.297 N 
ATOM      2  C   LIG    1       23.399  40.281 210.685  0.00  0.00    +0.123 C 
ATOM      3  C   LIG    1       22.616  39.037 210.195  0.00  0.00    +0.103 C 
ATOM      4  N   LIG    1       21.178  39.371 209.983  0.00  0.00    -0.299 NA
ATOM      5  C   LIG    1       21.069  40.444 208.943  0.00  0.00    +0.103 C 
ATOM      6  C   LIG    1       21.848  41.723 209.357  0.00  0.00    +0.123 C 
ENDROOT
BRANCH   1  10
ATOM      7  C   LIG    1       27.297  43.194 211.408  0.00  0.00    +0.066 C 
ATOM      8  C   LIG    1       26.162  43.241 210.414  0.00  0.00    +0.044 A 
ATOM      9  N   LIG    1       25.233  42.310 210.478  0.00  0.00    -0.220 NA
ATOM     10  C   LIG    1       24.227  42.343 209.595  0.00  0.00    +0.218 A 
ATOM     11  N   LIG    1       24.108  43.279 208.647  0.00  0.00    -0.219 NA
ATOM     12  C   LIG    1       25.027  44.226 208.556  0.00  0.00    +0.049 A 
ATOM     13  C   LIG    1       26.089  44.230 209.447  0.00  0.00    +0.046 A 
BRANCH  12  14
ATOM     14  C   LIG    1       24.908  45.299 207.478  0.00  0.00    +0.032 C 
ATOM     15  C   LIG    1       25.547  46.601 207.987  0.00  0.00    +0.014 C 
ATOM     16  C   LIG    1       23.424  45.516 207.140  0.00  0.00    +0.014 C 
ENDBRANCH  12  14
ENDBRANCH   1  10
BRANCH   4  17
ATOM     17  C   LIG    1       20.470  39.663 211.247  0.00  0.00    +0.085 C 
BRANCH  17  18
ATOM     18  C   LIG    1       19.948  38.297 211.730  0.00  0.00    +0.025 C 
BRANCH  18  19
ATOM     19  C   LIG    1       18.417  38.385 211.884  0.00  0.00    +0.097 C 
BRANCH  19  20
ATOM     20  C   LIG    1       17.778  37.406 210.922  0.00  0.00    +0.197 A 
ATOM     21  O   LIG    1       17.896  37.624 209.584  0.00  0.00    -0.440 OA
ATOM     22  C   LIG    1       17.247  36.604 209.014  0.00  0.00    +0.155 A 
ATOM     23  C   LIG    1       17.054  36.323 207.663  0.00  0.00    +0.048 A 
ATOM     24  C   LIG    1       16.332  35.178 207.341  0.00  0.00    +0.004 A 
ATOM     25  C   LIG    1       15.822  34.347 208.360  0.00  0.00    +0.002 A 
ATOM     26  C   LIG    1       16.033  34.657 209.702  0.00  0.00    +0.031 A 
ATOM     27  C   LIG    1       16.761  35.806 210.021  0.00  0.00    +0.110 A 
ATOM     28  N   LIG    1       17.121  36.350 211.231  0.00  0.00    -0.213 NA
ENDBRANCH  19  20
ENDBRANCH  18  19
ENDBRANCH  17  18
ENDBRANCH   4  17
TORSDOF 6
