REMARK VINA RESULT:      -8.8     19.796     23.441
REMARK  Name = ZINC000006083105
REMARK                            x       y       z     vdW  Elec       q    Type
REMARK                         _______ _______ _______ _____ _____    ______ ____
ROOT
ATOM      1  C   LIG    1       28.371  30.809 203.949  0.00  0.00    +0.083 C 
ENDROOT
BRANCH   1   2
ATOM      2  C   LIG    1       27.723  31.785 202.986  0.00  0.00    +0.111 A 
ATOM      3  N   LIG    1       26.349  31.881 203.056  0.00  0.00    -0.310 N 
ATOM      4  H   LIG    1       25.817  31.268 203.690  0.00  0.00    +0.170 HD
ATOM      5  C   LIG    1       25.621  32.692 202.239  0.00  0.00    +0.260 A 
ATOM      6  O   LIG    1       24.403  32.654 202.409  0.00  0.00    -0.267 OA
ATOM      7  C   LIG    1       26.355  33.472 201.287  0.00  0.00    +0.075 A 
ATOM      8  C   LIG    1       25.902  34.400 200.315  0.00  0.00    -0.023 A 
ATOM      9  C   LIG    1       24.444  34.756 200.078  0.00  0.00    +0.037 C 
ATOM     10  C   LIG    1       24.397  36.053 199.248  0.00  0.00    +0.005 C 
ATOM     11  C   LIG    1       25.338  35.980 198.031  0.00  0.00    +0.005 C 
ATOM     12  C   LIG    1       26.814  35.945 198.468  0.00  0.00    +0.043 C 
ATOM     13  C   LIG    1       26.927  34.921 199.577  0.00  0.00    -0.004 A 
ATOM     14  S   LIG    1       28.469  34.301 200.069  0.00  0.00    -0.073 S 
ATOM     15  C   LIG    1       27.720  33.320 201.273  0.00  0.00    +0.116 A 
ATOM     16  N   LIG    1       28.400  32.461 202.133  0.00  0.00    -0.227 NA
ENDBRANCH   1   2
BRANCH   1  17
ATOM     17  C   LIG    1       27.247  29.935 204.566  0.00  0.00    +0.104 C 
BRANCH  17  20
ATOM     18  N   LIG    1       27.130  27.715 205.614  0.00  0.00    -0.285 N 
ATOM     19  H   LIG    1       26.285  28.100 206.048  0.00  0.00    +0.155 HD
ATOM     20  C   LIG    1       27.776  28.524 204.719  0.00  0.00    +0.218 C 
ATOM     21  O   LIG    1       28.745  28.129 204.102  0.00  0.00    -0.275 OA
BRANCH  18  25
ATOM     22  C   LIG    1       28.127  23.784 206.649  0.00  0.00    +0.121 A 
ATOM     23  C   LIG    1       27.562  24.061 205.400  0.00  0.00    +0.047 A 
ATOM     24  C   LIG    1       27.244  25.375 205.069  0.00  0.00    +0.027 A 
ATOM     25  C   LIG    1       27.497  26.398 205.987  0.00  0.00    +0.034 A 
ATOM     26  C   LIG    1       28.056  26.118 207.238  0.00  0.00    +0.027 A 
ATOM     27  C   LIG    1       28.372  24.804 207.566  0.00  0.00    +0.047 A 
BRANCH  22  28
ATOM     28  O   LIG    1       28.465  22.502 207.030  0.00  0.00    -0.492 OA
BRANCH  28  30
ATOM     29  C   LIG    1       30.601  21.846 206.291  0.00  0.00    +0.048 C 
ATOM     30  C   LIG    1       29.110  21.533 206.179  0.00  0.00    +0.225 C 
ENDBRANCH  28  30
ENDBRANCH  22  28
ENDBRANCH  18  25
ENDBRANCH  17  20
ENDBRANCH   1  17
TORSDOF 6
