REMARK VINA RESULT:      -7.2     30.853     33.020
REMARK  Name = ZINC000000538650
REMARK                            x       y       z     vdW  Elec       q    Type
REMARK                         _______ _______ _______ _____ _____    ______ ____
ROOT
ATOM      1  C   LIG    1       36.099  18.767 188.414  0.00  0.00    +0.076 A 
ATOM      2  N   LIG    1       36.517  19.518 189.529  0.00  0.00    -0.213 N 
ATOM      3  N   LIG    1       36.176  20.804 189.842  0.00  0.00    -0.172 NA
ATOM      4  C   LIG    1       36.799  21.050 190.963  0.00  0.00    +0.148 A 
ATOM      5  C   LIG    1       37.558  19.968 191.402  0.00  0.00    +0.087 A 
ATOM      6  C   LIG    1       37.366  18.973 190.472  0.00  0.00    +0.167 A 
ATOM      7  N   LIG    1       37.819  17.663 190.377  0.00  0.00    -0.235 NA
ATOM      8  C   LIG    1       37.441  16.952 189.361  0.00  0.00    +0.115 A 
ATOM      9  C   LIG    1       36.583  17.478 188.356  0.00  0.00    +0.048 A 
ENDROOT
BRANCH   1  12
ATOM     10  C   LIG    1       33.213  19.380 186.067  0.00  0.00    +0.037 A 
ATOM     11  C   LIG    1       34.007  18.787 187.048  0.00  0.00    +0.033 A 
ATOM     12  C   LIG    1       35.219  19.379 187.425  0.00  0.00    +0.002 A 
ATOM     13  C   LIG    1       35.605  20.578 186.804  0.00  0.00    +0.010 A 
ATOM     14  C   LIG    1       34.804  21.168 185.831  0.00  0.00    +0.002 A 
ATOM     15  C   LIG    1       33.606  20.572 185.455  0.00  0.00    +0.023 A 
BRANCH  10  18
ATOM     16  C   LIG    1       30.529  17.557 184.022  0.00  0.00    +0.109 C 
ATOM     17  C   LIG    1       31.850  18.177 184.412  0.00  0.00    +0.216 C 
ATOM     18  N   LIG    1       32.001  18.744 185.674  0.00  0.00    -0.275 N 
ATOM     19  C   LIG    1       30.888  18.757 186.642  0.00  0.00    +0.138 C 
ATOM     20  O   LIG    1       32.775  18.181 183.627  0.00  0.00    -0.276 OA
ENDBRANCH  10  18
ENDBRANCH   1  12
BRANCH   5  21
ATOM     21  C   LIG    1       38.332  19.955 192.622  0.00  0.00    +0.205 C 
ATOM     22  O   LIG    1       39.528  20.236 192.542  0.00  0.00    -0.286 OA
BRANCH  21  23
ATOM     23  C   LIG    1       37.789  19.590 193.923  0.00  0.00    +0.060 A 
ATOM     24  S   LIG    1       36.225  18.842 194.057  0.00  0.00    -0.093 S 
ATOM     25  C   LIG    1       36.345  18.786 195.774  0.00  0.00    +0.046 A 
ATOM     26  C   LIG    1       37.523  19.320 196.218  0.00  0.00    +0.008 A 
ATOM     27  C   LIG    1       38.338  19.778 195.176  0.00  0.00    +0.019 A 
ENDBRANCH  21  23
ENDBRANCH   5  21
TORSDOF 4
