REMARK VINA RESULT:      -7.5     15.944     17.814
REMARK  Name = ZINC000000538650
REMARK                            x       y       z     vdW  Elec       q    Type
REMARK                         _______ _______ _______ _____ _____    ______ ____
ROOT
ATOM      1  C   LIG    1       27.592  25.703 211.215  0.00  0.00    +0.076 A 
ATOM      2  N   LIG    1       27.612  24.681 210.245  0.00  0.00    -0.213 N 
ATOM      3  N   LIG    1       27.153  23.400 210.375  0.00  0.00    -0.172 NA
ATOM      4  C   LIG    1       27.380  22.847 209.214  0.00  0.00    +0.148 A 
ATOM      5  C   LIG    1       27.989  23.720 208.315  0.00  0.00    +0.087 A 
ATOM      6  C   LIG    1       28.130  24.912 208.986  0.00  0.00    +0.167 A 
ATOM      7  N   LIG    1       28.626  26.155 208.616  0.00  0.00    -0.235 NA
ATOM      8  C   LIG    1       28.611  27.111 209.492  0.00  0.00    +0.115 A 
ATOM      9  C   LIG    1       28.105  26.914 210.806  0.00  0.00    +0.048 A 
ENDROOT
BRANCH   1  12
ATOM     10  C   LIG    1       27.349  24.936 214.898  0.00  0.00    +0.037 A 
ATOM     11  C   LIG    1       27.894  25.247 213.653  0.00  0.00    +0.033 A 
ATOM     12  C   LIG    1       27.058  25.421 212.543  0.00  0.00    +0.002 A 
ATOM     13  C   LIG    1       25.671  25.285 212.715  0.00  0.00    +0.010 A 
ATOM     14  C   LIG    1       25.133  24.981 213.963  0.00  0.00    +0.002 A 
ATOM     15  C   LIG    1       25.968  24.802 215.059  0.00  0.00    +0.023 A 
BRANCH  10  18
ATOM     16  C   LIG    1       29.520  25.511 218.007  0.00  0.00    +0.109 C 
ATOM     17  C   LIG    1       28.554  25.766 216.874  0.00  0.00    +0.216 C 
ATOM     18  N   LIG    1       28.219  24.730 216.007  0.00  0.00    -0.275 N 
ATOM     19  C   LIG    1       28.794  23.382 216.170  0.00  0.00    +0.138 C 
ATOM     20  O   LIG    1       28.074  26.869 216.720  0.00  0.00    -0.276 OA
ENDBRANCH  10  18
ENDBRANCH   1  12
BRANCH   5  21
ATOM     21  C   LIG    1       28.333  23.379 206.954  0.00  0.00    +0.205 C 
ATOM     22  O   LIG    1       28.269  22.194 206.628  0.00  0.00    -0.286 OA
BRANCH  21  23
ATOM     23  C   LIG    1       28.787  24.348 205.966  0.00  0.00    +0.060 A 
ATOM     24  S   LIG    1       27.645  25.249 205.013  0.00  0.00    -0.093 S 
ATOM     25  C   LIG    1       28.912  26.055 204.169  0.00  0.00    +0.046 A 
ATOM     26  C   LIG    1       30.146  25.646 204.595  0.00  0.00    +0.008 A 
ATOM     27  C   LIG    1       30.078  24.681 205.606  0.00  0.00    +0.019 A 
ENDBRANCH  21  23
ENDBRANCH   5  21
TORSDOF 4
