REMARK VINA RESULT:      -8.9     26.539     29.299
REMARK  Name = ZINC000006083105
REMARK                            x       y       z     vdW  Elec       q    Type
REMARK                         _______ _______ _______ _____ _____    ______ ____
ROOT
ATOM      1  C   LIG    1       26.513  15.800 190.100  0.00  0.00    +0.083 C 
ENDROOT
BRANCH   1   2
ATOM      2  C   LIG    1       26.458  15.780 191.615  0.00  0.00    +0.111 A 
ATOM      3  N   LIG    1       25.247  15.423 192.171  0.00  0.00    -0.310 N 
ATOM      4  H   LIG    1       24.430  15.249 191.569  0.00  0.00    +0.170 HD
ATOM      5  C   LIG    1       25.033  15.385 193.515  0.00  0.00    +0.260 A 
ATOM      6  O   LIG    1       23.894  15.068 193.858  0.00  0.00    -0.267 OA
ATOM      7  C   LIG    1       26.144  15.727 194.354  0.00  0.00    +0.075 A 
ATOM      8  C   LIG    1       26.246  15.778 195.767  0.00  0.00    -0.023 A 
ATOM      9  C   LIG    1       25.108  15.470 196.725  0.00  0.00    +0.037 C 
ATOM     10  C   LIG    1       25.707  15.251 198.127  0.00  0.00    +0.005 C 
ATOM     11  C   LIG    1       26.693  16.372 198.502  0.00  0.00    +0.005 C 
ATOM     12  C   LIG    1       27.952  16.329 197.616  0.00  0.00    +0.043 C 
ATOM     13  C   LIG    1       27.485  16.177 196.185  0.00  0.00    -0.004 A 
ATOM     14  S   LIG    1       28.557  16.478 194.856  0.00  0.00    -0.073 S 
ATOM     15  C   LIG    1       27.316  16.076 193.729  0.00  0.00    +0.116 A 
ATOM     16  N   LIG    1       27.461  16.103 192.344  0.00  0.00    -0.227 NA
ENDBRANCH   1   2
BRANCH   1  17
ATOM     17  C   LIG    1       27.565  16.860 189.677  0.00  0.00    +0.104 C 
BRANCH  17  20
ATOM     18  N   LIG    1       27.947  16.535 187.271  0.00  0.00    -0.285 N 
ATOM     19  H   LIG    1       28.504  15.736 187.593  0.00  0.00    +0.155 HD
ATOM     20  C   LIG    1       27.293  17.248 188.239  0.00  0.00    +0.218 C 
ATOM     21  O   LIG    1       26.554  18.168 187.949  0.00  0.00    -0.275 OA
BRANCH  18  25
ATOM     22  C   LIG    1       27.779  17.161 183.137  0.00  0.00    +0.121 A 
ATOM     23  C   LIG    1       26.630  16.782 183.838  0.00  0.00    +0.047 A 
ATOM     24  C   LIG    1       26.702  16.585 185.215  0.00  0.00    +0.027 A 
ATOM     25  C   LIG    1       27.919  16.774 185.875  0.00  0.00    +0.034 A 
ATOM     26  C   LIG    1       29.068  17.146 185.171  0.00  0.00    +0.027 A 
ATOM     27  C   LIG    1       28.993  17.341 183.796  0.00  0.00    +0.047 A 
BRANCH  22  28
ATOM     28  O   LIG    1       27.766  17.372 181.774  0.00  0.00    -0.492 OA
BRANCH  28  30
ATOM     29  C   LIG    1       27.941  17.068 179.447  0.00  0.00    +0.048 C 
ATOM     30  C   LIG    1       27.813  16.330 180.778  0.00  0.00    +0.225 C 
ENDBRANCH  28  30
ENDBRANCH  22  28
ENDBRANCH  18  25
ENDBRANCH  17  20
ENDBRANCH   1  17
TORSDOF 6
