REMARK VINA RESULT:      -6.2     19.086     21.303
REMARK  Name = ZINC000000622877
REMARK                            x       y       z     vdW  Elec       q    Type
REMARK                         _______ _______ _______ _____ _____    ______ ____
ROOT
ATOM      1  O   LIG    1       24.442  42.090 210.304  0.00  0.00    -0.274 OA
ATOM      2  C   LIG    1       24.171  42.694 209.278  0.00  0.00    +0.235 C 
ATOM      3  N   LIG    1       22.870  42.909 208.937  0.00  0.00    -0.219 N 
ATOM      4  H   LIG    1       22.623  43.568 208.181  0.00  0.00    +0.176 HD
ENDROOT
BRANCH   3   5
ATOM      5  N   LIG    1       21.759  42.436 209.785  0.00  0.00    -0.217 N 
ATOM      6  C   LIG    1       21.251  43.187 210.858  0.00  0.00    +0.079 A 
ATOM      7  C   LIG    1       20.125  42.610 211.347  0.00  0.00    +0.078 A 
ATOM      8  S   LIG    1       19.703  41.136 210.537  0.00  0.00    -0.033 S 
ATOM      9  C   LIG    1       21.074  41.281 209.482  0.00  0.00    +0.308 A 
ATOM     10  O   LIG    1       21.425  40.477 208.591  0.00  0.00    -0.258 OA
BRANCH   6  11
ATOM     11  C   LIG    1       21.902  44.403 211.325  0.00  0.00    +0.001 A 
ATOM     12  C   LIG    1       21.718  45.622 210.657  0.00  0.00    +0.010 A 
ATOM     13  C   LIG    1       22.349  46.779 211.102  0.00  0.00    +0.001 A 
ATOM     14  C   LIG    1       23.173  46.737 212.221  0.00  0.00    +0.000 A 
ATOM     15  C   LIG    1       23.364  45.535 212.895  0.00  0.00    +0.001 A 
ATOM     16  C   LIG    1       22.733  44.379 212.450  0.00  0.00    +0.010 A 
ENDBRANCH   6  11
ENDBRANCH   3   5
BRANCH   2  17
ATOM     17  C   LIG    1       25.246  43.233 208.355  0.00  0.00    +0.132 C 
BRANCH  17  18
ATOM     18  C   LIG    1       25.380  44.729 208.606  0.00  0.00    -0.039 A 
ATOM     19  C   LIG    1       25.018  45.647 207.621  0.00  0.00    +0.005 A 
ATOM     20  C   LIG    1       25.125  47.013 207.861  0.00  0.00    +0.015 A 
ATOM     21  C   LIG    1       25.595  47.474 209.088  0.00  0.00    +0.018 A 
ATOM     22 BR   LIG    1       25.736  49.332 209.414  0.00  0.00    -0.050 Br
ATOM     23  C   LIG    1       25.959  46.561 210.074  0.00  0.00    +0.015 A 
ATOM     24  C   LIG    1       25.855  45.194 209.833  0.00  0.00    +0.005 A 
ENDBRANCH  17  18
ENDBRANCH   2  17
TORSDOF 4
