REMARK VINA RESULT:      -9.2      0.000      0.000
REMARK  Name = ZINC000006084415
REMARK                            x       y       z     vdW  Elec       q    Type
REMARK                         _______ _______ _______ _____ _____    ______ ____
ROOT
ATOM      1  O   LIG    1       23.772  42.426 186.087  0.00  0.00    -0.451 OA
ENDROOT
BRANCH   1   2
ATOM      2  C   LIG    1       23.561  43.431 185.200  0.00  0.00    +0.356 C 
ATOM      3  O   LIG    1       22.756  44.298 185.507  0.00  0.00    -0.243 OA
BRANCH   2   7
ATOM      4  C   LIG    1       25.809  43.316 182.265  0.00  0.00    +0.041 A 
ATOM      5  C   LIG    1       25.663  43.348 183.671  0.00  0.00    -0.008 A 
ATOM      6  C   LIG    1       26.792  43.355 184.685  0.00  0.00    +0.047 C 
ATOM      7  C   LIG    1       24.321  43.376 183.966  0.00  0.00    +0.128 A 
ATOM      8  N   LIG    1       23.657  43.360 182.767  0.00  0.00    -0.352 N 
ATOM      9  H   LIG    1       22.623  43.386 182.678  0.00  0.00    +0.166 HD
ATOM     10  C   LIG    1       24.525  43.324 181.734  0.00  0.00    +0.024 A 
ATOM     11  C   LIG    1       23.979  43.307 180.319  0.00  0.00    +0.064 C 
BRANCH   4  13
ATOM     12  C   LIG    1       27.358  44.191 180.358  0.00  0.00    +0.091 C 
ATOM     13  C   LIG    1       27.079  43.287 181.533  0.00  0.00    +0.162 C 
ATOM     14  O   LIG    1       27.981  42.532 181.833  0.00  0.00    -0.292 OA
ENDBRANCH   4  13
ENDBRANCH   2   7
ENDBRANCH   1   2
BRANCH   1  15
ATOM     15  C   LIG    1       23.211  42.497 187.448  0.00  0.00    +0.328 C 
BRANCH  15  16
ATOM     16  C   LIG    1       24.360  42.814 188.406  0.00  0.00    +0.256 C 
ATOM     17  N   LIG    1       24.202  43.461 189.591  0.00  0.00    -0.266 N 
ATOM     18  H   LIG    1       25.050  43.455 190.171  0.00  0.00    +0.156 HD
ATOM     19  O   LIG    1       25.511  42.517 188.156  0.00  0.00    -0.272 OA
BRANCH  17  20
ATOM     20  C   LIG    1       23.060  44.086 190.118  0.00  0.00    +0.144 A 
ATOM     21  C   LIG    1       22.673  43.820 191.448  0.00  0.00    +0.082 A 
ATOM     22 CL   LIG    1       23.570  42.719 192.444  0.00  0.00    -0.080 Cl
ATOM     23  C   LIG    1       21.555  44.458 191.961  0.00  0.00    +0.045 A 
ATOM     24  C   LIG    1       20.871  45.344 191.134  0.00  0.00    +0.063 A 
ATOM     25 CL   LIG    1       19.469  46.153 191.756  0.00  0.00    -0.082 Cl
ATOM     26  C   LIG    1       21.322  45.570 189.822  0.00  0.00    +0.059 A 
ATOM     27  C   LIG    1       20.609  46.530 188.894  0.00  0.00    +0.067 C 
ATOM     28  N   LIG    1       22.402  44.945 189.337  0.00  0.00    -0.234 NA
ENDBRANCH  17  20
ENDBRANCH  15  16
ENDBRANCH   1  15
TORSDOF 6
