REMARK VINA RESULT:      -6.8     15.703     18.204
REMARK  Name = ZINC000006084756
REMARK                            x       y       z     vdW  Elec       q    Type
REMARK                         _______ _______ _______ _____ _____    ______ ____
ROOT
ATOM      1  C   LIG    1       25.686  23.189 214.428  0.00  0.00    +0.125 C 
ENDROOT
BRANCH   1   2
ATOM      2  N   LIG    1       26.416  21.948 214.080  0.00  0.00    -0.336 N 
ATOM      3  H   LIG    1       26.638  21.352 214.893  0.00  0.00    +0.147 HD
BRANCH   2   4
ATOM      4  C   LIG    1       26.091  21.231 212.929  0.00  0.00    +0.079 C 
ATOM      5  S   LIG    1       24.950  19.997 213.002  0.00  0.00    -0.035 S 
BRANCH   4   6
ATOM      6  C   LIG    1       26.793  21.635 211.705  0.00  0.00    +0.003 A 
ATOM      7  C   LIG    1       28.195  21.666 211.677  0.00  0.00    +0.012 A 
ATOM      8  C   LIG    1       28.877  22.048 210.529  0.00  0.00    +0.024 A 
ATOM      9  C   LIG    1       28.162  22.407 209.385  0.00  0.00    +0.033 A 
ATOM     10  C   LIG    1       26.764  22.396 209.396  0.00  0.00    +0.024 A 
ATOM     11  C   LIG    1       26.088  22.010 210.547  0.00  0.00    +0.012 A 
BRANCH   9  12
ATOM     12  N   LIG    1       28.919  22.800 208.256  0.00  0.00    -0.286 N 
ATOM     13  H   LIG    1       29.296  23.753 208.269  0.00  0.00    +0.155 HD
ATOM     14  C   LIG    1       29.266  22.051 207.161  0.00  0.00    +0.214 C 
ATOM     15  O   LIG    1       28.956  20.885 207.062  0.00  0.00    -0.276 OA
ATOM     16  C   LIG    1       30.072  22.759 206.108  0.00  0.00    +0.109 C 
ENDBRANCH   9  12
ENDBRANCH   4   6
ENDBRANCH   2   4
ENDBRANCH   1   2
BRANCH   1  17
ATOM     17  C   LIG    1       26.703  24.371 214.396  0.00  0.00    +0.104 C 
BRANCH  17  21
ATOM     18  C   LIG    1       26.911  26.068 210.425  0.00  0.00    +0.120 A 
ATOM     19  C   LIG    1       28.094  25.825 211.113  0.00  0.00    +0.046 A 
ATOM     20  C   LIG    1       28.049  25.263 212.384  0.00  0.00    +0.009 A 
ATOM     21  C   LIG    1       26.820  24.942 212.978  0.00  0.00    -0.029 A 
ATOM     22  C   LIG    1       25.642  25.172 212.261  0.00  0.00    +0.009 A 
ATOM     23  C   LIG    1       25.680  25.736 210.990  0.00  0.00    +0.046 A 
BRANCH  18  25
ATOM     24  C   LIG    1       27.827  26.132 208.098  0.00  0.00    +0.277 C 
ATOM     25  O   LIG    1       27.015  26.645 209.180  0.00  0.00    -0.495 OA
ENDBRANCH  18  25
ENDBRANCH  17  21
BRANCH  17  26
ATOM     26  N   LIG    1       26.337  25.473 215.334  0.00  0.00    -0.294 NA
ATOM     27  C   LIG    1       27.441  25.901 216.212  0.00  0.00    +0.085 C 
ATOM     28  C   LIG    1       26.777  26.016 217.587  0.00  0.00    +0.017 C 
ATOM     29  C   LIG    1       25.325  26.313 217.231  0.00  0.00    +0.017 C 
ATOM     30  C   LIG    1       25.093  25.320 216.098  0.00  0.00    +0.085 C 
ENDBRANCH  17  26
ENDBRANCH   1  17
TORSDOF 8
