REMARK VINA RESULT:      -7.5      2.089      2.856
REMARK  Name = ZINC000022625070
REMARK                            x       y       z     vdW  Elec       q    Type
REMARK                         _______ _______ _______ _____ _____    ______ ____
ROOT
ATOM      1  C   LIG    1       27.537  33.259 202.106  0.00  0.00    +0.171 A 
ATOM      2  C   LIG    1       26.379  33.574 201.395  0.00  0.00    +0.032 A 
ATOM      3  C   LIG    1       24.898  33.437 201.703  0.00  0.00    +0.046 C 
ATOM      4  C   LIG    1       24.138  34.569 200.957  0.00  0.00    +0.040 C 
ATOM      5  C   LIG    1       24.571  34.669 199.486  0.00  0.00    -0.036 A 
ATOM      6  C   LIG    1       25.915  34.450 199.138  0.00  0.00    +0.027 A 
ATOM      7  C   LIG    1       26.336  34.627 197.818  0.00  0.00    +0.057 A 
ATOM      8  C   LIG    1       25.406  35.002 196.850  0.00  0.00    +0.121 A 
ATOM      9  C   LIG    1       24.069  35.204 197.184  0.00  0.00    +0.046 A 
ATOM     10  C   LIG    1       23.656  35.042 198.504  0.00  0.00    +0.008 A 
ATOM     11  C   LIG    1       26.791  34.016 200.199  0.00  0.00    +0.171 A 
ATOM     12  O   LIG    1       28.129  33.969 200.185  0.00  0.00    -0.354 OA
ATOM     13  N   LIG    1       28.582  33.510 201.348  0.00  0.00    -0.073 NA
ENDROOT
BRANCH   1  16
ATOM     14  N   LIG    1       27.821  31.377 203.620  0.00  0.00    -0.307 N 
ATOM     15  H   LIG    1       27.839  30.826 202.753  0.00  0.00    +0.149 HD
ATOM     16  C   LIG    1       27.615  32.722 203.469  0.00  0.00    +0.266 C 
ATOM     17  O   LIG    1       27.498  33.398 204.490  0.00  0.00    -0.268 OA
BRANCH  14  18
ATOM     18  C   LIG    1       27.699  30.675 204.883  0.00  0.00    +0.070 C 
ATOM     19  C   LIG    1       28.728  31.304 205.823  0.00  0.00    +0.028 C 
BRANCH  18  20
ATOM     20  C   LIG    1       27.940  29.177 204.621  0.00  0.00    +0.023 C 
BRANCH  20  21
ATOM     21  C   LIG    1       27.105  28.200 205.479  0.00  0.00    +0.017 C 
BRANCH  21  22
ATOM     22  C   LIG    1       27.516  26.773 205.041  0.00  0.00    +0.084 C 
BRANCH  22  23
ATOM     23  N   LIG    1       28.429  26.173 206.050  0.00  0.00    -0.303 NA
BRANCH  23  25
ATOM     24  C   LIG    1       27.819  25.993 208.340  0.00  0.00    +0.020 C 
ATOM     25  C   LIG    1       27.740  25.265 206.995  0.00  0.00    +0.081 C 
ENDBRANCH  23  25
BRANCH  23  26
ATOM     26  C   LIG    1       29.653  25.594 205.465  0.00  0.00    +0.081 C 
ATOM     27  C   LIG    1       29.590  25.942 203.973  0.00  0.00    +0.020 C 
ENDBRANCH  23  26
ENDBRANCH  22  23
ENDBRANCH  21  22
ENDBRANCH  20  21
ENDBRANCH  18  20
ENDBRANCH  14  18
ENDBRANCH   1  16
BRANCH   8  28
ATOM     28  O   LIG    1       25.758  35.186 195.532  0.00  0.00    -0.495 OA
ATOM     29  C   LIG    1       26.924  35.911 195.077  0.00  0.00    +0.277 C 
ENDBRANCH   8  28
TORSDOF 9
