REMARK VINA RESULT:      -8.1      3.782      8.456
REMARK  Name = ZINC000000607845
REMARK                            x       y       z     vdW  Elec       q    Type
REMARK                         _______ _______ _______ _____ _____    ______ ____
ROOT
ATOM      1  C   LIG    1       36.069  19.103 186.807  0.00  0.00    -0.021 A 
ATOM      2  C   LIG    1       34.796  19.150 186.191  0.00  0.00    +0.003 A 
ATOM      3  C   LIG    1       33.860  18.168 185.820  0.00  0.00    +0.014 A 
ATOM      4  C   LIG    1       32.658  18.549 185.240  0.00  0.00    -0.045 A 
ATOM      5  C   LIG    1       32.380  19.920 185.009  0.00  0.00    +0.006 A 
ATOM      6  C   LIG    1       33.297  20.897 185.358  0.00  0.00    +0.026 A 
ATOM      7  C   LIG    1       34.498  20.484 185.949  0.00  0.00    +0.047 A 
ATOM      8  N   LIG    1       35.571  21.229 186.396  0.00  0.00    -0.360 N 
ATOM      9  H   LIG    1       35.643  22.258 186.344  0.00  0.00    +0.165 HD
ATOM     10  C   LIG    1       36.523  20.381 186.918  0.00  0.00    +0.087 A 
ENDROOT
BRANCH   1  11
ATOM     11  C   LIG    1       36.798  17.857 187.271  0.00  0.00    +0.056 C 
BRANCH  11  14
ATOM     12  C   LIG    1       36.949  15.101 188.041  0.00  0.00    +0.105 C 
ATOM     13  N   LIG    1       36.578  16.075 189.084  0.00  0.00    -0.302 NA
ATOM     14  C   LIG    1       36.199  17.450 188.645  0.00  0.00    +0.061 C 
ATOM     15  C   LIG    1       36.784  18.365 189.743  0.00  0.00    +0.020 C 
ATOM     16  C   LIG    1       37.071  17.396 190.889  0.00  0.00    +0.017 C 
ATOM     17  C   LIG    1       37.585  16.176 190.132  0.00  0.00    +0.084 C 
ENDBRANCH  11  14
ENDBRANCH   1  11
BRANCH   4  18
ATOM     18  C   LIG    1       31.629  17.499 184.876  0.00  0.00    +0.058 C 
BRANCH  18  19
ATOM     19  C   LIG    1       30.379  18.277 184.433  0.00  0.00    +0.176 C 
BRANCH  19  20
ATOM     20  S   LIG    1       28.937  17.290 184.105  0.00  0.00    -0.003 S 
ATOM     21  O   LIG    1       29.355  15.948 183.875  0.00  0.00    -0.169 OA
ATOM     22  O   LIG    1       28.189  17.921 183.071  0.00  0.00    -0.169 OA
BRANCH  20  23
ATOM     23  C   LIG    1       28.007  17.367 185.645  0.00  0.00    +0.088 A 
ATOM     24  C   LIG    1       28.671  17.392 186.875  0.00  0.00    +0.027 A 
ATOM     25  C   LIG    1       27.953  17.451 188.066  0.00  0.00    +0.002 A 
ATOM     26  C   LIG    1       26.563  17.477 188.040  0.00  0.00    +0.000 A 
ATOM     27  C   LIG    1       25.891  17.439 186.824  0.00  0.00    +0.002 A 
ATOM     28  C   LIG    1       26.610  17.380 185.633  0.00  0.00    +0.027 A 
ENDBRANCH  20  23
ENDBRANCH  19  20
ENDBRANCH  18  19
ENDBRANCH   4  18
TORSDOF 6
