REMARK VINA RESULT:      -6.8      1.602      2.369
REMARK  Name = ZINC000006087402
REMARK                            x       y       z     vdW  Elec       q    Type
REMARK                         _______ _______ _______ _____ _____    ______ ____
ROOT
ATOM      1  C   LIG    1       21.357  46.393 181.910  0.00  0.00    +0.214 C 
ENDROOT
BRANCH   1   7
ATOM      2  C   LIG    1       22.879  51.055 185.040  0.00  0.00    +0.010 C 
ATOM      3  C   LIG    1       21.716  50.135 184.596  0.00  0.00    +0.018 C 
ATOM      4  C   LIG    1       21.660  49.959 183.041  0.00  0.00    +0.115 C 
ATOM      5  C   LIG    1       20.834  48.726 182.656  0.00  0.00    +0.247 C 
ATOM      6  O   LIG    1       19.640  48.502 182.753  0.00  0.00    -0.273 OA
ATOM      7  N   LIG    1       21.688  47.803 182.140  0.00  0.00    -0.215 N 
ATOM      8  C   LIG    1       22.963  48.291 182.120  0.00  0.00    +0.310 C 
ATOM      9  O   LIG    1       23.953  47.660 181.794  0.00  0.00    -0.252 OA
ATOM     10  N   LIG    1       22.969  49.572 182.534  0.00  0.00    -0.285 N 
ATOM     11  H   LIG    1       23.849  49.979 182.868  0.00  0.00    +0.151 HD
ATOM     12  C   LIG    1       21.211  51.241 182.291  0.00  0.00    +0.035 C 
ATOM     13  C   LIG    1       19.865  51.734 182.855  0.00  0.00    +0.003 C 
ATOM     14  C   LIG    1       19.927  51.965 184.370  0.00  0.00    +0.000 C 
ATOM     15  C   LIG    1       20.366  50.687 185.100  0.00  0.00    +0.006 C 
ENDBRANCH   1   7
BRANCH   1  16
ATOM     16  C   LIG    1       21.815  45.590 183.129  0.00  0.00    +0.238 C 
ATOM     17  N   LIG    1       22.567  44.440 182.934  0.00  0.00    -0.267 N 
ATOM     18  O   LIG    1       21.539  45.922 184.275  0.00  0.00    -0.274 OA
BRANCH  17  19
ATOM     19  C   LIG    1       22.787  43.885 181.647  0.00  0.00    +0.010 C 
ATOM     20  C   LIG    1       21.954  42.659 181.308  0.00  0.00    +0.051 C 
ATOM     21  C   LIG    1       22.628  41.943 180.119  0.00  0.00    +0.006 C 
ATOM     22  C   LIG    1       22.826  42.983 178.998  0.00  0.00    +0.004 C 
ATOM     23  C   LIG    1       23.970  43.932 179.420  0.00  0.00    +0.029 C 
ATOM     24  C   LIG    1       23.663  44.467 180.806  0.00  0.00    -0.008 C 
ENDBRANCH  17  19
BRANCH  17  25
ATOM     25  C   LIG    1       23.069  43.700 184.109  0.00  0.00    +0.187 C 
BRANCH  25  26
ATOM     26  C   LIG    1       24.546  43.478 183.851  0.00  0.00    +0.122 A 
ATOM     27  O   LIG    1       25.405  44.533 183.795  0.00  0.00    -0.466 OA
ATOM     28  C   LIG    1       26.641  44.033 183.541  0.00  0.00    +0.195 A 
ATOM     29  C   LIG    1       26.572  42.688 183.439  0.00  0.00    +0.041 A 
ATOM     30  C   LIG    1       25.235  42.332 183.636  0.00  0.00    +0.046 A 
ENDBRANCH  25  26
ENDBRANCH  17  25
ENDBRANCH   1  16
TORSDOF 5
