REMARK VINA RESULT:      -7.9      4.476      7.662
REMARK  Name = ZINC000006084415
REMARK                            x       y       z     vdW  Elec       q    Type
REMARK                         _______ _______ _______ _____ _____    ______ ____
ROOT
ATOM      1  O   LIG    1       22.025  46.008 184.316  0.00  0.00    -0.451 OA
ENDROOT
BRANCH   1   2
ATOM      2  C   LIG    1       21.917  46.758 185.442  0.00  0.00    +0.356 C 
ATOM      3  O   LIG    1       22.242  46.239 186.501  0.00  0.00    -0.243 OA
BRANCH   2   7
ATOM      4  C   LIG    1       20.321  50.065 184.998  0.00  0.00    +0.041 A 
ATOM      5  C   LIG    1       20.174  48.669 185.166  0.00  0.00    -0.008 A 
ATOM      6  C   LIG    1       18.862  47.908 185.216  0.00  0.00    +0.047 C 
ATOM      7  C   LIG    1       21.426  48.112 185.275  0.00  0.00    +0.128 A 
ATOM      8  N   LIG    1       22.323  49.145 185.177  0.00  0.00    -0.352 N 
ATOM      9  H   LIG    1       23.352  49.022 185.213  0.00  0.00    +0.166 HD
ATOM     10  C   LIG    1       21.686  50.323 185.011  0.00  0.00    +0.024 A 
ATOM     11  C   LIG    1       22.511  51.589 184.876  0.00  0.00    +0.064 C 
BRANCH   4  13
ATOM     12  C   LIG    1       18.258  51.347 185.947  0.00  0.00    +0.091 C 
ATOM     13  C   LIG    1       19.229  51.030 184.837  0.00  0.00    +0.162 C 
ATOM     14  O   LIG    1       19.044  51.630 183.799  0.00  0.00    -0.292 OA
ENDBRANCH   4  13
ENDBRANCH   2   7
ENDBRANCH   1   2
BRANCH   1  15
ATOM     15  C   LIG    1       23.332  45.817 183.665  0.00  0.00    +0.328 C 
BRANCH  15  16
ATOM     16  C   LIG    1       23.244  44.552 182.811  0.00  0.00    +0.256 C 
ATOM     17  N   LIG    1       23.477  43.299 183.286  0.00  0.00    -0.266 N 
ATOM     18  H   LIG    1       23.228  42.560 182.618  0.00  0.00    +0.156 HD
ATOM     19  O   LIG    1       22.974  44.588 181.628  0.00  0.00    -0.272 OA
BRANCH  17  20
ATOM     20  C   LIG    1       23.966  42.900 184.541  0.00  0.00    +0.144 A 
ATOM     21  C   LIG    1       25.240  42.302 184.632  0.00  0.00    +0.082 A 
ATOM     22 CL   LIG    1       26.211  42.030 183.221  0.00  0.00    -0.080 Cl
ATOM     23  C   LIG    1       25.719  41.930 185.878  0.00  0.00    +0.045 A 
ATOM     24  C   LIG    1       24.914  42.178 186.988  0.00  0.00    +0.063 A 
ATOM     25 CL   LIG    1       25.493  41.721 188.557  0.00  0.00    -0.082 Cl
ATOM     26  C   LIG    1       23.660  42.791 186.822  0.00  0.00    +0.059 A 
ATOM     27  C   LIG    1       22.759  43.082 188.004  0.00  0.00    +0.067 C 
ATOM     28  N   LIG    1       23.209  43.142 185.612  0.00  0.00    -0.234 NA
ENDBRANCH  17  20
ENDBRANCH  15  16
ENDBRANCH   1  15
TORSDOF 6
