REMARK VINA RESULT:      -7.0     27.553     29.259
REMARK  Name = ZINC000078751741
REMARK                            x       y       z     vdW  Elec       q    Type
REMARK                         _______ _______ _______ _____ _____    ______ ____
ROOT
ATOM      1  S   LIG    1       17.786  38.496 211.196  0.00  0.00    +0.073 S 
ATOM      2  O   LIG    1       16.983  38.787 210.065  0.00  0.00    -0.150 OA
ATOM      3  O   LIG    1       17.243  38.776 212.474  0.00  0.00    -0.150 OA
ENDROOT
BRANCH   1   6
ATOM      4  C   LIG    1       18.438  41.787 211.255  0.00  0.00    +0.053 C 
ATOM      5  C   LIG    1       19.510  40.733 211.069  0.00  0.00    +0.014 A 
ATOM      6  C   LIG    1       19.351  39.366 211.022  0.00  0.00    +0.119 A 
ATOM      7  C   LIG    1       20.575  38.702 210.824  0.00  0.00    +0.051 A 
ATOM      8  C   LIG    1       21.660  39.544 210.739  0.00  0.00    +0.098 A 
ATOM      9  S   LIG    1       21.161  41.197 210.884  0.00  0.00    -0.085 S 
BRANCH   8  10
ATOM     10  C   LIG    1       23.049  39.172 210.564  0.00  0.00    +0.344 C 
ATOM     11  O   LIG    1       23.970  39.578 211.243  0.00  0.00    -0.245 OA
BRANCH  10  12
ATOM     12  O   LIG    1       23.358  38.326 209.589  0.00  0.00    -0.477 OA
ATOM     13  H   LIG    1       24.050  37.743 209.944  0.00  0.00    +0.295 HD
ENDBRANCH  10  12
ENDBRANCH   8  10
ENDBRANCH   1   6
BRANCH   1  14
ATOM     14  N   LIG    1       18.181  36.890 211.153  0.00  0.00    -0.213 N 
ATOM     15  H   LIG    1       18.325  36.735 212.158  0.00  0.00    +0.174 HD
BRANCH  14  16
ATOM     16  C   LIG    1       17.144  36.073 210.685  0.00  0.00    +0.084 A 
ATOM     17  C   LIG    1       16.146  35.617 211.550  0.00  0.00    +0.146 A 
ATOM     18  F   LIG    1       16.200  35.943 212.860  0.00  0.00    -0.204 F 
ATOM     19  C   LIG    1       15.096  34.835 211.094  0.00  0.00    +0.041 A 
ATOM     20  C   LIG    1       15.046  34.487 209.744  0.00  0.00    +0.015 A 
ATOM     21  C   LIG    1       16.049  34.915 208.854  0.00  0.00    +0.057 A 
ATOM     22  C   LIG    1       17.109  35.692 209.342  0.00  0.00    +0.039 A 
BRANCH  21  23
ATOM     23  C   LIG    1       16.015  34.524 207.368  0.00  0.00    +0.417 C 
ATOM     24  F   LIG    1       16.085  35.613 206.585  0.00  0.00    -0.166 F 
ATOM     25  F   LIG    1       14.872  33.871 207.113  0.00  0.00    -0.166 F 
ATOM     26  F   LIG    1       17.055  33.715 207.085  0.00  0.00    -0.166 F 
ENDBRANCH  21  23
ENDBRANCH  14  16
ENDBRANCH   1  14
TORSDOF 6
