REMARK VINA RESULT:      -9.6      1.886      3.436
REMARK  Name = ZINC000049421769
REMARK                            x       y       z     vdW  Elec       q    Type
REMARK                         _______ _______ _______ _____ _____    ______ ____
ROOT
ATOM      1  C   LIG    1       24.912  41.080 187.305  0.00  0.00    +0.088 C 
ATOM      2  C   LIG    1       24.369  42.155 186.391  0.00  0.00    +0.135 A 
ATOM      3  N   LIG    1       23.628  43.233 186.737  0.00  0.00    -0.276 N 
ATOM      4  C   LIG    1       23.118  43.727 187.991  0.00  0.00    +0.075 A 
ATOM      5  C   LIG    1       23.287  43.059 189.215  0.00  0.00    +0.028 A 
ATOM      6  C   LIG    1       22.775  43.623 190.374  0.00  0.00    +0.002 A 
ATOM      7  C   LIG    1       22.097  44.843 190.323  0.00  0.00    +0.002 A 
ATOM      8  C   LIG    1       21.923  45.497 189.112  0.00  0.00    +0.030 A 
ATOM      9  C   LIG    1       22.421  44.948 187.925  0.00  0.00    +0.089 A 
ATOM     10  N   LIG    1       22.201  45.630 186.730  0.00  0.00    -0.235 NA
ATOM     11  C   LIG    1       22.663  45.136 185.627  0.00  0.00    +0.143 A 
ATOM     12  C   LIG    1       23.401  43.900 185.591  0.00  0.00    +0.194 A 
ATOM     13  N   LIG    1       23.960  43.266 184.590  0.00  0.00    -0.127 NA
ATOM     14  N   LIG    1       24.566  42.171 185.109  0.00  0.00    -0.134 NA
ENDROOT
BRANCH  11  15
ATOM     15  S   LIG    1       22.389  46.005 184.142  0.00  0.00    -0.093 S 
BRANCH  15  16
ATOM     16  C   LIG    1       22.490  47.769 184.656  0.00  0.00    +0.172 C 
BRANCH  16  17
ATOM     17  C   LIG    1       21.059  48.224 184.874  0.00  0.00    +0.227 C 
ATOM     18  N   LIG    1       20.859  49.247 185.763  0.00  0.00    -0.284 N 
ATOM     19  H   LIG    1       21.679  49.556 186.302  0.00  0.00    +0.155 HD
ATOM     20  O   LIG    1       20.116  47.703 184.317  0.00  0.00    -0.275 OA
BRANCH  18  21
ATOM     21  C   LIG    1       19.601  49.765 186.146  0.00  0.00    +0.039 A 
ATOM     22  C   LIG    1       18.924  49.134 187.202  0.00  0.00    -0.029 A 
ATOM     23  C   LIG    1       19.486  47.903 187.893  0.00  0.00    +0.045 C 
ATOM     24  C   LIG    1       17.693  49.646 187.604  0.00  0.00    +0.005 A 
ATOM     25  C   LIG    1       17.149  50.760 186.972  0.00  0.00    +0.001 A 
ATOM     26  C   LIG    1       17.833  51.379 185.928  0.00  0.00    +0.005 A 
ATOM     27  C   LIG    1       19.068  50.895 185.505  0.00  0.00    -0.029 A 
ATOM     28  C   LIG    1       19.787  51.603 184.369  0.00  0.00    +0.045 C 
ENDBRANCH  18  21
ENDBRANCH  16  17
ENDBRANCH  15  16
ENDBRANCH  11  15
TORSDOF 4
