REMARK VINA RESULT:      -8.2      2.681      4.066
REMARK  Name = ZINC000049421769
REMARK                            x       y       z     vdW  Elec       q    Type
REMARK                         _______ _______ _______ _____ _____    ______ ____
ROOT
ATOM      1  C   LIG    1       24.815  41.213 187.102  0.00  0.00    +0.088 C 
ATOM      2  C   LIG    1       24.216  42.330 186.277  0.00  0.00    +0.135 A 
ATOM      3  N   LIG    1       23.507  43.393 186.721  0.00  0.00    -0.276 N 
ATOM      4  C   LIG    1       23.089  43.832 188.029  0.00  0.00    +0.075 A 
ATOM      5  C   LIG    1       23.339  43.108 189.207  0.00  0.00    +0.028 A 
ATOM      6  C   LIG    1       22.912  43.621 190.423  0.00  0.00    +0.002 A 
ATOM      7  C   LIG    1       22.239  44.844 190.474  0.00  0.00    +0.002 A 
ATOM      8  C   LIG    1       21.986  45.552 189.309  0.00  0.00    +0.030 A 
ATOM      9  C   LIG    1       22.396  45.057 188.066  0.00  0.00    +0.089 A 
ATOM     10  N   LIG    1       22.098  45.792 186.922  0.00  0.00    -0.235 NA
ATOM     11  C   LIG    1       22.479  45.347 185.769  0.00  0.00    +0.143 A 
ATOM     12  C   LIG    1       23.205  44.111 185.625  0.00  0.00    +0.194 A 
ATOM     13  N   LIG    1       23.689  43.522 184.561  0.00  0.00    -0.127 NA
ATOM     14  N   LIG    1       24.323  42.403 184.986  0.00  0.00    -0.134 NA
ENDROOT
BRANCH  11  15
ATOM     15  S   LIG    1       22.107  46.283 184.347  0.00  0.00    -0.093 S 
BRANCH  15  16
ATOM     16  C   LIG    1       20.842  47.478 184.942  0.00  0.00    +0.172 C 
BRANCH  16  17
ATOM     17  C   LIG    1       20.875  48.641 183.970  0.00  0.00    +0.227 C 
ATOM     18  N   LIG    1       20.005  49.674 184.204  0.00  0.00    -0.284 N 
ATOM     19  H   LIG    1       19.316  49.534 184.954  0.00  0.00    +0.155 HD
ATOM     20  O   LIG    1       21.611  48.667 183.006  0.00  0.00    -0.275 OA
BRANCH  18  21
ATOM     21  C   LIG    1       19.841  50.810 183.379  0.00  0.00    +0.039 A 
ATOM     22  C   LIG    1       18.827  50.779 182.409  0.00  0.00    -0.029 A 
ATOM     23  C   LIG    1       17.953  49.553 182.202  0.00  0.00    +0.045 C 
ATOM     24  C   LIG    1       18.641  51.898 181.603  0.00  0.00    +0.005 A 
ATOM     25  C   LIG    1       19.444  53.024 181.759  0.00  0.00    +0.001 A 
ATOM     26  C   LIG    1       20.443  53.045 182.728  0.00  0.00    +0.005 A 
ATOM     27  C   LIG    1       20.652  51.944 183.554  0.00  0.00    -0.029 A 
ATOM     28  C   LIG    1       21.747  52.007 184.605  0.00  0.00    +0.045 C 
ENDBRANCH  18  21
ENDBRANCH  16  17
ENDBRANCH  15  16
ENDBRANCH  11  15
TORSDOF 4
