REMARK VINA RESULT:      -8.7      0.000      0.000
REMARK  Name = ZINC000049399659
REMARK                            x       y       z     vdW  Elec       q    Type
REMARK                         _______ _______ _______ _____ _____    ______ ____
ROOT
ATOM      1  C   LIG    1       22.876  46.567 184.773  0.00  0.00    +0.173 C 
ENDROOT
BRANCH   1   4
ATOM      2  N   LIG    1       21.437  48.482 185.333  0.00  0.00    -0.282 N 
ATOM      3  H   LIG    1       22.297  48.823 185.787  0.00  0.00    +0.155 HD
ATOM      4  C   LIG    1       21.509  47.215 184.809  0.00  0.00    +0.228 C 
ATOM      5  O   LIG    1       20.517  46.644 184.405  0.00  0.00    -0.275 OA
BRANCH   2   7
ATOM      6  C   LIG    1       20.256  50.408 184.513  0.00  0.00    +0.141 A 
ATOM      7  C   LIG    1       20.327  49.367 185.453  0.00  0.00    +0.077 A 
ATOM      8  C   LIG    1       19.332  49.229 186.423  0.00  0.00    +0.047 A 
ATOM      9  C   LIG    1       18.281  50.146 186.456  0.00  0.00    +0.043 A 
ATOM     10 CL   LIG    1       17.041  49.992 187.654  0.00  0.00    -0.083 Cl
ATOM     11  C   LIG    1       18.215  51.190 185.528  0.00  0.00    +0.024 A 
ATOM     12  C   LIG    1       19.202  51.321 184.554  0.00  0.00    +0.049 A 
BRANCH   6  14
ATOM     13  C   LIG    1       21.036  50.712 182.134  0.00  0.00    +0.277 C 
ATOM     14  O   LIG    1       21.260  50.496 183.547  0.00  0.00    -0.493 OA
ENDBRANCH   6  14
ENDBRANCH   2   7
ENDBRANCH   1   4
BRANCH   1  15
ATOM     15  S   LIG    1       22.631  44.876 184.108  0.00  0.00    -0.077 S 
BRANCH  15  16
ATOM     16  C   LIG    1       23.162  43.874 185.422  0.00  0.00    +0.190 A 
ATOM     17  N   LIG    1       22.776  44.209 186.653  0.00  0.00    -0.207 NA
ATOM     18  C   LIG    1       23.176  43.448 187.658  0.00  0.00    +0.126 A 
ATOM     19  C   LIG    1       23.972  42.329 187.440  0.00  0.00    +0.063 A 
ATOM     20  C   LIG    1       24.344  42.040 186.144  0.00  0.00    +0.117 A 
ATOM     21  N   LIG    1       23.942  42.812 185.143  0.00  0.00    -0.230 NA
BRANCH  18  22
ATOM     22  N   LIG    1       22.778  43.783 188.948  0.00  0.00    -0.315 N 
ATOM     23  C   LIG    1       23.849  43.854 189.960  0.00  0.00    +0.106 C 
ATOM     24  C   LIG    1       23.176  43.560 191.314  0.00  0.00    +0.019 C 
ATOM     25  C   LIG    1       22.105  44.638 191.555  0.00  0.00    +0.003 C 
ATOM     26  C   LIG    1       21.051  44.582 190.437  0.00  0.00    +0.019 C 
ATOM     27  C   LIG    1       21.755  44.844 189.092  0.00  0.00    +0.106 C 
ENDBRANCH  18  22
ENDBRANCH  15  16
ENDBRANCH   1  15
TORSDOF 6
