REMARK VINA RESULT:      -7.6      0.000      0.000
REMARK  Name = ZINC000000538069
REMARK                            x       y       z     vdW  Elec       q    Type
REMARK                         _______ _______ _______ _____ _____    ______ ____
ROOT
ATOM      1  C   LIG    1       22.529  45.682 186.468  0.00  0.00    +0.248 C 
ATOM      2  N   LIG    1       22.603  46.875 185.811  0.00  0.00    -0.307 N 
ATOM      3  H   LIG    1       22.149  47.675 186.283  0.00  0.00    +0.149 HD
ATOM      4  O   LIG    1       22.845  44.687 185.821  0.00  0.00    -0.270 OA
ENDROOT
BRANCH   1   9
ATOM      5  C   LIG    1       21.412  45.444 190.608  0.00  0.00    +0.049 A 
ATOM      6  C   LIG    1       22.509  44.716 190.101  0.00  0.00    +0.063 A 
ATOM      7 CL   LIG    1       23.459  43.708 191.145  0.00  0.00    -0.082 Cl
ATOM      8  C   LIG    1       22.844  44.811 188.756  0.00  0.00    +0.038 A 
ATOM      9  C   LIG    1       22.109  45.624 187.874  0.00  0.00    +0.080 A 
ATOM     10  C   LIG    1       21.000  46.331 188.401  0.00  0.00    +0.134 A 
ATOM     11  C   LIG    1       20.656  46.244 189.752  0.00  0.00    +0.070 A 
BRANCH   5  13
ATOM     12  C   LIG    1       20.149  46.302 192.568  0.00  0.00    +0.125 C 
ATOM     13  N   LIG    1       21.086  45.344 191.973  0.00  0.00    -0.346 N 
ATOM     14  H   LIG    1       21.925  45.173 192.560  0.00  0.00    +0.146 HD
ENDBRANCH   5  13
BRANCH  10  15
ATOM     15  O   LIG    1       20.225  47.124 187.570  0.00  0.00    -0.494 OA
ATOM     16  C   LIG    1       19.155  48.030 187.929  0.00  0.00    +0.277 C 
ENDBRANCH  10  15
ENDBRANCH   1   9
BRANCH   2  17
ATOM     17  C   LIG    1       22.655  47.010 184.353  0.00  0.00    +0.091 C 
ATOM     18  C   LIG    1       21.409  47.753 183.819  0.00  0.00    +0.074 C 
ATOM     19  C   LIG    1       20.097  47.213 184.418  0.00  0.00    +0.026 C 
ATOM     20  N   LIG    1       21.594  49.132 184.291  0.00  0.00    -0.294 NA
ATOM     21  C   LIG    1       23.049  49.387 184.434  0.00  0.00    +0.087 C 
ATOM     22  C   LIG    1       23.728  48.052 184.066  0.00  0.00    +0.039 C 
BRANCH  20  23
ATOM     23  C   LIG    1       20.936  50.121 183.412  0.00  0.00    +0.120 C 
BRANCH  23  24
ATOM     24  C   LIG    1       19.631  50.476 184.104  0.00  0.00    -0.033 A 
ATOM     25  C   LIG    1       18.426  50.478 183.402  0.00  0.00    +0.005 A 
ATOM     26  C   LIG    1       17.236  50.799 184.049  0.00  0.00    +0.000 A 
ATOM     27  C   LIG    1       17.245  51.121 185.403  0.00  0.00    +0.000 A 
ATOM     28  C   LIG    1       18.443  51.120 186.109  0.00  0.00    +0.000 A 
ATOM     29  C   LIG    1       19.632  50.800 185.461  0.00  0.00    +0.005 A 
ENDBRANCH  23  24
ENDBRANCH  20  23
ENDBRANCH   2  17
TORSDOF 6
