REMARK VINA RESULT:      -8.3      4.126      9.469
REMARK  Name = ZINC000006083766
REMARK                            x       y       z     vdW  Elec       q    Type
REMARK                         _______ _______ _______ _____ _____    ______ ____
ROOT
ATOM      1  O   LIG    1       35.163  20.753 186.625  0.00  0.00    -0.468 OA
ENDROOT
BRANCH   1   2
ATOM      2  C   LIG    1       36.365  20.207 186.315  0.00  0.00    +0.227 A 
ATOM      3  C   LIG    1       37.339  20.047 187.316  0.00  0.00    +0.073 A 
ATOM      4  C   LIG    1       37.345  20.360 188.706  0.00  0.00    -0.023 A 
ATOM      5  C   LIG    1       36.181  20.995 189.454  0.00  0.00    +0.037 C 
ATOM      6  C   LIG    1       36.439  20.856 190.965  0.00  0.00    +0.005 C 
ATOM      7  C   LIG    1       37.877  21.255 191.338  0.00  0.00    +0.005 C 
ATOM      8  C   LIG    1       38.895  20.260 190.756  0.00  0.00    +0.043 C 
ATOM      9  C   LIG    1       38.537  20.060 189.298  0.00  0.00    -0.004 A 
ATOM     10  S   LIG    1       39.678  19.362 188.192  0.00  0.00    -0.073 S 
ATOM     11  C   LIG    1       38.539  19.493 186.898  0.00  0.00    +0.116 A 
ATOM     12  N   LIG    1       38.763  19.117 185.616  0.00  0.00    -0.228 NA
ATOM     13  C   LIG    1       37.791  19.301 184.756  0.00  0.00    +0.226 A 
ATOM     14  N   LIG    1       36.583  19.844 185.069  0.00  0.00    -0.201 NA
ENDBRANCH   1   2
BRANCH   1  15
ATOM     15  C   LIG    1       33.976  20.562 185.801  0.00  0.00    +0.310 C 
BRANCH  15  17
ATOM     16  O   LIG    1       33.384  18.963 187.451  0.00  0.00    -0.288 OA
ATOM     17  C   LIG    1       33.218  19.338 186.306  0.00  0.00    +0.200 C 
BRANCH  17  18
ATOM     18  C   LIG    1       32.262  18.652 185.436  0.00  0.00    +0.025 A 
ATOM     19  C   LIG    1       30.992  18.255 185.901  0.00  0.00    +0.061 A 
ATOM     20  C   LIG    1       30.114  17.608 185.046  0.00  0.00    +0.163 A 
ATOM     21  O   LIG    1       28.865  17.248 185.506  0.00  0.00    -0.485 OA
ATOM     22  C   LIG    1       27.843  16.908 184.519  0.00  0.00    +0.270 C 
ATOM     23  C   LIG    1       28.491  15.941 183.516  0.00  0.00    +0.270 C 
ATOM     24  O   LIG    1       29.610  16.649 182.903  0.00  0.00    -0.485 OA
ATOM     25  C   LIG    1       30.480  17.324 183.726  0.00  0.00    +0.162 A 
ATOM     26  C   LIG    1       31.723  17.714 183.245  0.00  0.00    +0.050 A 
ATOM     27  C   LIG    1       32.607  18.372 184.096  0.00  0.00    +0.015 A 
ENDBRANCH  17  18
ENDBRANCH  15  17
ENDBRANCH   1  15
TORSDOF 4
