REMARK VINA RESULT:      -7.2     26.364     28.780
REMARK  Name = ZINC000000622956
REMARK                            x       y       z     vdW  Elec       q    Type
REMARK                         _______ _______ _______ _____ _____    ______ ____
ROOT
ATOM      1  C   LIG    1       37.971  21.454 191.813  0.00  0.00    +0.271 C 
ATOM      2  N   LIG    1       38.367  20.252 192.507  0.00  0.00    -0.157 N 
ATOM      3  C   LIG    1       39.597  20.324 192.965  0.00  0.00    +0.250 C 
ATOM      4  C   LIG    1       40.297  19.240 193.772  0.00  0.00    +0.124 C 
ATOM      5  C   LIG    1       40.437  19.754 195.223  0.00  0.00    +0.012 C 
ATOM      6  C   LIG    1       41.616  20.740 195.315  0.00  0.00    +0.004 C 
ATOM      7  C   LIG    1       41.430  22.091 194.591  0.00  0.00    +0.045 C 
ATOM      8  C   LIG    1       41.490  21.889 193.065  0.00  0.00    +0.236 C 
ATOM      9  N   LIG    1       40.144  21.471 192.652  0.00  0.00    -0.258 N 
ATOM     10  C   LIG    1       39.219  22.363 191.921  0.00  0.00    +0.323 C 
ENDROOT
BRANCH   1  11
ATOM     11  C   LIG    1       37.615  21.169 190.349  0.00  0.00    +0.034 A 
ATOM     12  C   LIG    1       36.289  20.913 189.956  0.00  0.00    +0.060 A 
ATOM     13  C   LIG    1       36.027  20.672 188.616  0.00  0.00    +0.167 A 
ATOM     14  O   LIG    1       34.825  20.409 188.059  0.00  0.00    -0.453 OA
ATOM     15  C   LIG    1       35.075  20.243 186.604  0.00  0.00    +0.466 C 
ATOM     16  O   LIG    1       36.538  20.428 186.441  0.00  0.00    -0.453 OA
ATOM     17  C   LIG    1       37.022  20.684 187.674  0.00  0.00    +0.166 A 
ATOM     18  C   LIG    1       38.337  20.940 188.023  0.00  0.00    +0.050 A 
ATOM     19  C   LIG    1       38.629  21.185 189.366  0.00  0.00    +0.014 A 
ENDBRANCH   1  11
BRANCH   2  20
ATOM     20  C   LIG    1       37.490  19.166 192.742  0.00  0.00    +0.124 A 
ATOM     21  C   LIG    1       37.491  18.103 191.840  0.00  0.00    +0.050 A 
ATOM     22  C   LIG    1       36.631  17.030 192.058  0.00  0.00    +0.024 A 
ATOM     23  C   LIG    1       35.783  17.032 193.170  0.00  0.00    +0.041 A 
ATOM     24 CL   LIG    1       34.715  15.697 193.437  0.00  0.00    -0.084 Cl
ATOM     25  C   LIG    1       35.790  18.106 194.065  0.00  0.00    +0.024 A 
ATOM     26  C   LIG    1       36.647  19.182 193.852  0.00  0.00    +0.050 A 
ENDBRANCH   2  20
BRANCH   1  27
ATOM     27  O   LIG    1       36.878  22.001 192.539  0.00  0.00    -0.347 OA
ATOM     28  H   LIG    1       37.166  22.847 192.914  0.00  0.00    +0.215 HD
ENDBRANCH   1  27
TORSDOF 3
