REMARK VINA RESULT:      -9.9     19.207     20.062
REMARK  Name = ZINC000049410302
REMARK                            x       y       z     vdW  Elec       q    Type
REMARK                         _______ _______ _______ _____ _____    ______ ____
ROOT
ATOM      1  C   LIG    1       27.347  29.696 204.483  0.00  0.00    +0.314 A 
ATOM      2  O   LIG    1       28.106  30.524 205.180  0.00  0.00    -0.328 OA
ATOM      3  N   LIG    1       28.291  31.611 204.468  0.00  0.00    -0.054 NA
ATOM      4  C   LIG    1       27.645  31.419 203.363  0.00  0.00    +0.224 A 
ATOM      5  N   LIG    1       27.035  30.211 203.341  0.00  0.00    -0.182 NA
ENDROOT
BRANCH   4   6
ATOM      6  C   LIG    1       27.589  32.397 202.272  0.00  0.00    +0.153 A 
ATOM      7  N   LIG    1       28.661  33.083 201.782  0.00  0.00    -0.126 NA
ATOM      8  N   LIG    1       28.235  33.861 200.822  0.00  0.00    -0.060 NA
ATOM      9  N   LIG    1       26.904  33.681 200.690  0.00  0.00    -0.219 N 
ATOM     10  C   LIG    1       26.488  32.779 201.582  0.00  0.00    +0.148 A 
BRANCH   9  11
ATOM     11  C   LIG    1       26.090  34.381 199.725  0.00  0.00    +0.068 A 
ATOM     12  C   LIG    1       26.630  35.457 199.018  0.00  0.00    +0.047 A 
ATOM     13  C   LIG    1       25.829  36.114 198.084  0.00  0.00    +0.043 A 
ATOM     14 CL   LIG    1       26.473  37.450 197.190  0.00  0.00    -0.083 Cl
ATOM     15  C   LIG    1       24.510  35.703 197.868  0.00  0.00    +0.020 A 
ATOM     16  C   LIG    1       23.985  34.629 198.586  0.00  0.00    +0.003 A 
ATOM     17  C   LIG    1       24.771  33.961 199.521  0.00  0.00    +0.028 A 
ENDBRANCH   9  11
ENDBRANCH   4   6
BRANCH   1  20
ATOM     18  N   LIG    1       27.997  27.648 205.600  0.00  0.00    -0.278 N 
ATOM     19  H   LIG    1       28.905  28.133 205.631  0.00  0.00    +0.155 HD
ATOM     20  C   LIG    1       26.977  28.392 205.032  0.00  0.00    +0.306 C 
ATOM     21  O   LIG    1       25.831  27.947 205.026  0.00  0.00    -0.265 OA
BRANCH  18  26
ATOM     22  C   LIG    1       27.761  22.573 208.215  0.00  0.00    +0.044 C 
ATOM     23  C   LIG    1       27.815  23.909 207.506  0.00  0.00    -0.050 A 
ATOM     24  C   LIG    1       27.802  25.096 208.240  0.00  0.00    +0.005 A 
ATOM     25  C   LIG    1       27.857  26.324 207.592  0.00  0.00    +0.023 A 
ATOM     26  C   LIG    1       27.927  26.368 206.200  0.00  0.00    +0.034 A 
ATOM     27  C   LIG    1       27.954  25.186 205.455  0.00  0.00    +0.023 A 
ATOM     28  C   LIG    1       27.897  23.962 206.114  0.00  0.00    +0.005 A 
ENDBRANCH  18  26
ENDBRANCH   1  20
TORSDOF 4
