REMARK VINA RESULT:      -8.8      3.601      5.703
REMARK  Name = ZINC000006086009
REMARK                            x       y       z     vdW  Elec       q    Type
REMARK                         _______ _______ _______ _____ _____    ______ ____
ROOT
ATOM      1  N   LIG    1       24.482  42.528 184.841  0.00  0.00    -0.286 NA
ATOM      2  C   LIG    1       25.329  41.841 185.850  0.00  0.00    +0.106 C 
ENDROOT
BRANCH   1   3
ATOM      3  C   LIG    1       25.326  43.040 183.683  0.00  0.00    +0.140 C 
ATOM      4  C   LIG    1       26.202  41.853 183.233  0.00  0.00    +0.034 C 
BRANCH   3   7
ATOM      5  N   LIG    1       23.192  43.082 182.437  0.00  0.00    -0.281 N 
ATOM      6  H   LIG    1       22.904  42.452 183.197  0.00  0.00    +0.155 HD
ATOM      7  C   LIG    1       24.492  43.520 182.469  0.00  0.00    +0.234 C 
ATOM      8  O   LIG    1       24.942  44.177 181.547  0.00  0.00    -0.274 OA
BRANCH   5  10
ATOM      9  C   LIG    1       22.095  42.017 180.586  0.00  0.00    +0.141 A 
ATOM     10  C   LIG    1       22.262  43.166 181.371  0.00  0.00    +0.076 A 
ATOM     11  C   LIG    1       21.524  44.318 181.098  0.00  0.00    +0.027 A 
ATOM     12  C   LIG    1       20.632  44.323 180.028  0.00  0.00    +0.002 A 
ATOM     13  C   LIG    1       20.470  43.183 179.240  0.00  0.00    +0.004 A 
ATOM     14  C   LIG    1       21.199  42.026 179.516  0.00  0.00    +0.047 A 
BRANCH   9  16
ATOM     15  C   LIG    1       22.637  39.573 180.331  0.00  0.00    +0.277 C 
ATOM     16  O   LIG    1       22.849  40.886 180.904  0.00  0.00    -0.493 OA
ENDBRANCH   9  16
ENDBRANCH   5  10
ENDBRANCH   3   7
ENDBRANCH   1   3
BRANCH   1  17
ATOM     17  C   LIG    1       23.638  43.610 185.521  0.00  0.00    +0.181 C 
BRANCH  17  18
ATOM     18  C   LIG    1       23.248  43.167 186.927  0.00  0.00    +0.231 C 
ATOM     19  N   LIG    1       23.371  44.136 187.889  0.00  0.00    -0.284 N 
ATOM     20  H   LIG    1       23.646  45.047 187.491  0.00  0.00    +0.155 HD
ATOM     21  O   LIG    1       22.882  42.038 187.185  0.00  0.00    -0.274 OA
BRANCH  19  22
ATOM     22  C   LIG    1       23.198  44.073 189.293  0.00  0.00    +0.041 A 
ATOM     23  C   LIG    1       22.077  44.767 189.849  0.00  0.00    +0.003 A 
ATOM     24  C   LIG    1       21.174  45.550 189.074  0.00  0.00    +0.010 A 
ATOM     25  C   LIG    1       20.106  46.187 189.661  0.00  0.00    +0.001 A 
ATOM     26  C   LIG    1       19.890  46.079 191.049  0.00  0.00    +0.001 A 
ATOM     27  C   LIG    1       20.749  45.340 191.826  0.00  0.00    +0.008 A 
ATOM     28  C   LIG    1       21.861  44.675 191.249  0.00  0.00    -0.016 A 
ATOM     29  C   LIG    1       22.760  43.924 192.049  0.00  0.00    +0.008 A 
ATOM     30  C   LIG    1       23.834  43.277 191.484  0.00  0.00    +0.002 A 
ATOM     31  C   LIG    1       24.056  43.345 190.097  0.00  0.00    +0.024 A 
ENDBRANCH  19  22
ENDBRANCH  17  18
ENDBRANCH   1  17
TORSDOF 7
