REMARK VINA RESULT:      -9.6      0.000      0.000
REMARK  Name = ZINC000006083766
REMARK                            x       y       z     vdW  Elec       q    Type
REMARK                         _______ _______ _______ _____ _____    ______ ____
ROOT
ATOM      1  O   LIG    1       30.733  17.775 185.874  0.00  0.00    -0.468 OA
ENDROOT
BRANCH   1   2
ATOM      2  C   LIG    1       29.431  17.493 186.127  0.00  0.00    +0.227 A 
ATOM      3  C   LIG    1       28.597  17.050 185.086  0.00  0.00    +0.073 A 
ATOM      4  C   LIG    1       28.837  16.812 183.702  0.00  0.00    -0.023 A 
ATOM      5  C   LIG    1       30.178  17.013 183.009  0.00  0.00    +0.037 C 
ATOM      6  C   LIG    1       30.121  16.333 181.629  0.00  0.00    +0.005 C 
ATOM      7  C   LIG    1       28.827  16.683 180.873  0.00  0.00    +0.005 C 
ATOM      8  C   LIG    1       27.599  16.074 181.571  0.00  0.00    +0.043 C 
ATOM      9  C   LIG    1       27.711  16.412 183.043  0.00  0.00    -0.004 A 
ATOM     10  S   LIG    1       26.332  16.287 184.089  0.00  0.00    -0.073 S 
ATOM     11  C   LIG    1       27.281  16.801 185.440  0.00  0.00    +0.116 A 
ATOM     12  N   LIG    1       26.821  16.960 186.705  0.00  0.00    -0.228 NA
ATOM     13  C   LIG    1       27.677  17.373 187.608  0.00  0.00    +0.226 A 
ATOM     14  N   LIG    1       28.985  17.650 187.355  0.00  0.00    -0.201 NA
ENDBRANCH   1   2
BRANCH   1  15
ATOM     15  C   LIG    1       31.342  19.054 186.218  0.00  0.00    +0.310 C 
BRANCH  15  17
ATOM     16  O   LIG    1       32.712  18.987 184.282  0.00  0.00    -0.288 OA
ATOM     17  C   LIG    1       32.673  19.180 185.483  0.00  0.00    +0.200 C 
BRANCH  17  18
ATOM     18  C   LIG    1       33.881  19.577 186.207  0.00  0.00    +0.025 A 
ATOM     19  C   LIG    1       34.381  18.815 187.282  0.00  0.00    +0.061 A 
ATOM     20  C   LIG    1       35.530  19.223 187.943  0.00  0.00    +0.163 A 
ATOM     21  O   LIG    1       36.024  18.455 188.976  0.00  0.00    -0.485 OA
ATOM     22  C   LIG    1       37.399  18.692 189.409  0.00  0.00    +0.270 C 
ATOM     23  C   LIG    1       37.564  20.212 189.567  0.00  0.00    +0.270 C 
ATOM     24  O   LIG    1       37.305  20.807 188.260  0.00  0.00    -0.485 OA
ATOM     25  C   LIG    1       36.190  20.398 187.570  0.00  0.00    +0.162 A 
ATOM     26  C   LIG    1       35.718  21.159 186.508  0.00  0.00    +0.050 A 
ATOM     27  C   LIG    1       34.570  20.750 185.834  0.00  0.00    +0.015 A 
ENDBRANCH  17  18
ENDBRANCH  15  17
ENDBRANCH   1  15
TORSDOF 4
