REMARK VINA RESULT:      -7.4     11.640     14.373
REMARK  Name = ZINC000049420917
REMARK                            x       y       z     vdW  Elec       q    Type
REMARK                         _______ _______ _______ _____ _____    ______ ____
ROOT
ATOM      1  N   LIG    1       28.053  15.950 196.704  0.00  0.00    -0.205 N 
ATOM      2  C   LIG    1       29.190  15.867 195.864  0.00  0.00    +0.160 A 
ATOM      3  N   LIG    1       28.985  15.895 194.538  0.00  0.00    -0.238 NA
ATOM      4  C   LIG    1       30.031  15.810 193.717  0.00  0.00    +0.113 A 
ATOM      5  C   LIG    1       31.334  15.701 194.196  0.00  0.00    +0.022 A 
ATOM      6  C   LIG    1       31.562  15.679 195.568  0.00  0.00    +0.034 A 
ATOM      7  C   LIG    1       30.461  15.754 196.411  0.00  0.00    +0.149 A 
ATOM      8  S   LIG    1       30.522  15.812 198.171  0.00  0.00    +0.082 S 
ATOM      9  O   LIG    1       30.220  14.533 198.693  0.00  0.00    -0.150 OA
ATOM     10  O   LIG    1       31.750  16.392 198.574  0.00  0.00    -0.150 OA
ATOM     11  N   LIG    1       29.295  16.834 198.540  0.00  0.00    -0.150 N 
ATOM     12  C   LIG    1       28.114  16.384 198.037  0.00  0.00    +0.334 C 
ATOM     13  O   LIG    1       27.111  16.374 198.743  0.00  0.00    -0.250 OA
ENDROOT
BRANCH   1  18
ATOM     14  C   LIG    1       22.982  14.290 194.666  0.00  0.00    +0.044 C 
ATOM     15  C   LIG    1       24.330  14.724 195.199  0.00  0.00    -0.050 A 
ATOM     16  C   LIG    1       24.854  15.970 194.849  0.00  0.00    +0.005 A 
ATOM     17  C   LIG    1       26.086  16.381 195.345  0.00  0.00    +0.024 A 
ATOM     18  C   LIG    1       26.791  15.534 196.198  0.00  0.00    +0.044 A 
ATOM     19  C   LIG    1       26.280  14.289 196.562  0.00  0.00    +0.024 A 
ATOM     20  C   LIG    1       25.046  13.889 196.060  0.00  0.00    +0.005 A 
ENDBRANCH   1  18
BRANCH  11  21
ATOM     21  C   LIG    1       29.345  17.342 199.909  0.00  0.00    +0.171 C 
BRANCH  21  22
ATOM     22  C   LIG    1       29.475  18.842 199.730  0.00  0.00    -0.028 A 
ATOM     23  C   LIG    1       28.336  19.652 199.788  0.00  0.00    +0.008 A 
ATOM     24  C   LIG    1       28.448  21.031 199.630  0.00  0.00    +0.038 A 
ATOM     25  C   LIG    1       29.706  21.579 199.420  0.00  0.00    +0.123 A 
ATOM     26  F   LIG    1       29.819  22.920 199.265  0.00  0.00    -0.205 F 
ATOM     27  C   LIG    1       30.852  20.798 199.364  0.00  0.00    +0.038 A 
ATOM     28  C   LIG    1       30.731  19.420 199.522  0.00  0.00    +0.008 A 
ENDBRANCH  21  22
ENDBRANCH  11  21
TORSDOF 3
