MODEL 1
REMARK VINA RESULT:      -8.5      0.000      0.000
REMARK  Name = ZINC000009107243
REMARK                            x       y       z     vdW  Elec       q    Type
REMARK                         _______ _______ _______ _____ _____    ______ ____
ROOT
ATOM      1  N   LIG    1       33.481  18.633 184.932  0.00  0.00    -0.285 N 
ATOM      2  H   LIG    1       34.253  18.222 184.389  0.00  0.00    +0.155 HD
ATOM      3  C   LIG    1       33.832  19.715 185.699  0.00  0.00    +0.222 C 
ATOM      4  O   LIG    1       32.986  20.390 186.248  0.00  0.00    -0.275 OA
ENDROOT
BRANCH   1   9
ATOM      5  N   LIG    1       28.380  16.518 183.878  0.00  0.00    -0.271 N 
ATOM      6  C   LIG    1       29.679  17.064 184.130  0.00  0.00    +0.040 A 
ATOM      7  C   LIG    1       30.590  17.292 183.090  0.00  0.00    +0.025 A 
ATOM      8  C   LIG    1       31.843  17.819 183.376  0.00  0.00    +0.025 A 
ATOM      9  C   LIG    1       32.183  18.118 184.697  0.00  0.00    +0.034 A 
ATOM     10  C   LIG    1       31.278  17.890 185.737  0.00  0.00    +0.028 A 
ATOM     11  C   LIG    1       30.017  17.370 185.458  0.00  0.00    -0.024 A 
ATOM     12  C   LIG    1       29.026  17.123 186.580  0.00  0.00    +0.046 C 
ATOM     13  C   LIG    1       27.658  17.557 186.026  0.00  0.00    +0.101 C 
ATOM     14  C   LIG    1       27.381  16.682 184.822  0.00  0.00    +0.220 C 
ATOM     15  O   LIG    1       26.307  16.126 184.680  0.00  0.00    -0.275 OA
BRANCH   5  16
ATOM     16  C   LIG    1       28.101  15.709 182.673  0.00  0.00    +0.113 C 
BRANCH  16  18
ATOM     17  C   LIG    1       28.207  16.397 180.298  0.00  0.00    +0.005 C 
ATOM     18  C   LIG    1       27.507  16.681 181.634  0.00  0.00    +0.016 C 
ENDBRANCH  16  18
ENDBRANCH   5  16
ENDBRANCH   1   9
BRANCH   3  19
ATOM     19  C   LIG    1       35.310  20.032 185.829  0.00  0.00    +0.131 C 
BRANCH  19  20
ATOM     20  C   LIG    1       35.777  19.558 187.199  0.00  0.00    -0.035 A 
ATOM     21  C   LIG    1       36.163  20.481 188.173  0.00  0.00    +0.053 A 
ATOM     22  C   LIG    1       36.561  20.042 189.438  0.00  0.00    +0.162 A 
ATOM     23  C   LIG    1       36.572  18.665 189.727  0.00  0.00    +0.161 A 
ATOM     24  C   LIG    1       36.193  17.749 188.752  0.00  0.00    +0.049 A 
ATOM     25  C   LIG    1       35.797  18.193 187.493  0.00  0.00    +0.008 A 
BRANCH  22  26
ATOM     26  O   LIG    1       36.936  20.972 190.401  0.00  0.00    -0.491 OA
ATOM     27  C   LIG    1       36.084  21.557 191.412  0.00  0.00    +0.277 C 
ENDBRANCH  22  26
BRANCH  23  28
ATOM     28  O   LIG    1       36.941  18.109 190.946  0.00  0.00    -0.491 OA
ATOM     29  C   LIG    1       36.983  16.712 191.312  0.00  0.00    +0.277 C 
ENDBRANCH  23  28
ENDBRANCH  19  20
ENDBRANCH   3  19
TORSDOF 7
ENDMDL
MODEL 2
REMARK VINA RESULT:      -8.2      1.048      2.474
REMARK  Name = ZINC000009107243
REMARK                            x       y       z     vdW  Elec       q    Type
REMARK                         _______ _______ _______ _____ _____    ______ ____
ROOT
ATOM      1  N   LIG    1       33.851  18.745 185.175  0.00  0.00    -0.285 N 
ATOM      2  H   LIG    1       34.620  18.214 184.744  0.00  0.00    +0.155 HD
ATOM      3  C   LIG    1       34.233  19.907 185.797  0.00  0.00    +0.222 C 
ATOM      4  O   LIG    1       33.407  20.704 186.190  0.00  0.00    -0.275 OA
ENDROOT
BRANCH   1   9
ATOM      5  N   LIG    1       28.576  16.987 184.345  0.00  0.00    -0.271 N 
ATOM      6  C   LIG    1       29.918  17.431 184.573  0.00  0.00    +0.040 A 
ATOM      7  C   LIG    1       30.314  17.950 185.813  0.00  0.00    +0.025 A 
ATOM      8  C   LIG    1       31.625  18.374 185.994  0.00  0.00    +0.025 A 
ATOM      9  C   LIG    1       32.535  18.277 184.940  0.00  0.00    +0.034 A 
ATOM     10  C   LIG    1       32.143  17.762 183.701  0.00  0.00    +0.028 A 
ATOM     11  C   LIG    1       30.834  17.328 183.514  0.00  0.00    -0.024 A 
ATOM     12  C   LIG    1       30.399  16.763 182.175  0.00  0.00    +0.046 C 
ATOM     13  C   LIG    1       29.485  15.571 182.506  0.00  0.00    +0.101 C 
ATOM     14  C   LIG    1       28.317  16.126 183.292  0.00  0.00    +0.220 C 
ATOM     15  O   LIG    1       27.170  15.832 183.010  0.00  0.00    -0.275 OA
BRANCH   5  16
ATOM     16  C   LIG    1       27.446  17.493 185.151  0.00  0.00    +0.113 C 
BRANCH  16  18
ATOM     17  C   LIG    1       27.099  17.537 187.602  0.00  0.00    +0.005 C 
ATOM     18  C   LIG    1       27.394  16.610 186.415  0.00  0.00    +0.016 C 
ENDBRANCH  16  18
ENDBRANCH   5  16
ENDBRANCH   1   9
BRANCH   3  19
ATOM     19  C   LIG    1       35.721  20.154 185.967  0.00  0.00    +0.131 C 
BRANCH  19  20
ATOM     20  C   LIG    1       36.192  19.381 187.192  0.00  0.00    -0.035 A 
ATOM     21  C   LIG    1       36.304  20.018 188.429  0.00  0.00    +0.053 A 
ATOM     22  C   LIG    1       36.706  19.296 189.556  0.00  0.00    +0.162 A 
ATOM     23  C   LIG    1       36.999  17.925 189.439  0.00  0.00    +0.161 A 
ATOM     24  C   LIG    1       36.891  17.297 188.203  0.00  0.00    +0.049 A 
ATOM     25  C   LIG    1       36.489  18.021 187.084  0.00  0.00    +0.008 A 
BRANCH  22  26
ATOM     26  O   LIG    1       36.808  19.941 190.784  0.00  0.00    -0.491 OA
ATOM     27  C   LIG    1       37.060  21.348 190.999  0.00  0.00    +0.277 C 
ENDBRANCH  22  26
BRANCH  23  28
ATOM     28  O   LIG    1       37.402  17.103 190.486  0.00  0.00    -0.491 OA
ATOM     29  C   LIG    1       36.711  15.960 191.037  0.00  0.00    +0.277 C 
ENDBRANCH  23  28
ENDBRANCH  19  20
ENDBRANCH   3  19
TORSDOF 7
ENDMDL
MODEL 3
REMARK VINA RESULT:      -7.7      6.041     10.335
REMARK  Name = ZINC000009107243
REMARK                            x       y       z     vdW  Elec       q    Type
REMARK                         _______ _______ _______ _____ _____    ______ ____
ROOT
ATOM      1  N   LIG    1       26.222  15.651 189.002  0.00  0.00    -0.285 N 
ATOM      2  H   LIG    1       25.971  14.710 188.668  0.00  0.00    +0.155 HD
ATOM      3  C   LIG    1       26.122  16.640 188.057  0.00  0.00    +0.222 C 
ATOM      4  O   LIG    1       26.222  17.810 188.366  0.00  0.00    -0.275 OA
ENDROOT
BRANCH   1   9
ATOM      5  N   LIG    1       27.195  16.090 194.521  0.00  0.00    -0.271 N 
ATOM      6  C   LIG    1       26.930  15.977 193.118  0.00  0.00    +0.040 A 
ATOM      7  C   LIG    1       25.798  15.303 192.641  0.00  0.00    +0.025 A 
ATOM      8  C   LIG    1       25.578  15.211 191.273  0.00  0.00    +0.025 A 
ATOM      9  C   LIG    1       26.485  15.794 190.386  0.00  0.00    +0.034 A 
ATOM     10  C   LIG    1       27.616  16.466 190.858  0.00  0.00    +0.028 A 
ATOM     11  C   LIG    1       27.840  16.569 192.228  0.00  0.00    -0.024 A 
ATOM     12  C   LIG    1       29.062  17.300 192.751  0.00  0.00    +0.046 C 
ATOM     13  C   LIG    1       28.577  18.092 193.977  0.00  0.00    +0.101 C 
ATOM     14  C   LIG    1       28.057  17.076 194.971  0.00  0.00    +0.220 C 
ATOM     15  O   LIG    1       28.386  17.113 196.143  0.00  0.00    -0.275 OA
BRANCH   5  16
ATOM     16  C   LIG    1       26.641  15.125 195.493  0.00  0.00    +0.113 C 
BRANCH  16  18
ATOM     17  C   LIG    1       25.355  15.593 197.557  0.00  0.00    +0.005 C 
ATOM     18  C   LIG    1       25.342  15.760 196.031  0.00  0.00    +0.016 C 
ENDBRANCH  16  18
ENDBRANCH   5  16
ENDBRANCH   1   9
BRANCH   3  19
ATOM     19  C   LIG    1       25.879  16.216 186.620  0.00  0.00    +0.131 C 
BRANCH  19  20
ATOM     20  C   LIG    1       27.090  16.629 185.794  0.00  0.00    -0.035 A 
ATOM     21  C   LIG    1       26.942  16.988 184.453  0.00  0.00    +0.053 A 
ATOM     22  C   LIG    1       28.052  17.396 183.708  0.00  0.00    +0.162 A 
ATOM     23  C   LIG    1       29.320  17.442 184.315  0.00  0.00    +0.161 A 
ATOM     24  C   LIG    1       29.463  17.077 185.649  0.00  0.00    +0.049 A 
ATOM     25  C   LIG    1       28.354  16.672 186.386  0.00  0.00    +0.008 A 
BRANCH  22  26
ATOM     26  O   LIG    1       27.889  17.757 182.376  0.00  0.00    -0.491 OA
ATOM     27  C   LIG    1       28.006  16.886 181.227  0.00  0.00    +0.277 C 
ENDBRANCH  22  26
BRANCH  23  28
ATOM     28  O   LIG    1       30.493  17.835 183.681  0.00  0.00    -0.491 OA
ATOM     29  C   LIG    1       31.312  17.069 182.769  0.00  0.00    +0.277 C 
ENDBRANCH  23  28
ENDBRANCH  19  20
ENDBRANCH   3  19
TORSDOF 7
ENDMDL
MODEL 4
REMARK VINA RESULT:      -7.6      2.829      9.631
REMARK  Name = ZINC000009107243
REMARK                            x       y       z     vdW  Elec       q    Type
REMARK                         _______ _______ _______ _____ _____    ______ ____
ROOT
ATOM      1  N   LIG    1       34.457  19.394 185.392  0.00  0.00    -0.285 N 
ATOM      2  H   LIG    1       34.525  19.656 184.399  0.00  0.00    +0.155 HD
ATOM      3  C   LIG    1       33.176  19.313 185.878  0.00  0.00    +0.222 C 
ATOM      4  O   LIG    1       32.954  18.850 186.977  0.00  0.00    -0.275 OA
ENDROOT
BRANCH   1   9
ATOM      5  N   LIG    1       39.268  18.090 187.991  0.00  0.00    -0.271 N 
ATOM      6  C   LIG    1       38.051  18.429 187.316  0.00  0.00    +0.040 A 
ATOM      7  C   LIG    1       37.967  19.555 186.486  0.00  0.00    +0.025 A 
ATOM      8  C   LIG    1       36.768  19.854 185.852  0.00  0.00    +0.025 A 
ATOM      9  C   LIG    1       35.658  19.029 186.046  0.00  0.00    +0.034 A 
ATOM     10  C   LIG    1       35.738  17.907 186.875  0.00  0.00    +0.028 A 
ATOM     11  C   LIG    1       36.938  17.596 187.508  0.00  0.00    -0.024 A 
ATOM     12  C   LIG    1       37.036  16.378 188.406  0.00  0.00    +0.046 C 
ATOM     13  C   LIG    1       38.410  15.752 188.106  0.00  0.00    +0.101 C 
ATOM     14  C   LIG    1       39.447  16.798 188.455  0.00  0.00    +0.220 C 
ATOM     15  O   LIG    1       40.420  16.520 189.133  0.00  0.00    -0.275 OA
BRANCH   5  16
ATOM     16  C   LIG    1       40.301  19.105 188.282  0.00  0.00    +0.113 C 
BRANCH  16  18
ATOM     17  C   LIG    1       39.936  21.384 189.177  0.00  0.00    +0.005 C 
ATOM     18  C   LIG    1       39.793  19.892 189.507  0.00  0.00    +0.016 C 
ENDBRANCH  16  18
ENDBRANCH   5  16
ENDBRANCH   1   9
BRANCH   3  19
ATOM     19  C   LIG    1       32.055  19.819 184.988  0.00  0.00    +0.131 C 
BRANCH  19  20
ATOM     20  C   LIG    1       31.464  18.627 184.248  0.00  0.00    -0.035 A 
ATOM     21  C   LIG    1       32.032  18.183 183.053  0.00  0.00    +0.053 A 
ATOM     22  C   LIG    1       31.504  17.069 182.395  0.00  0.00    +0.162 A 
ATOM     23  C   LIG    1       30.396  16.396 182.942  0.00  0.00    +0.161 A 
ATOM     24  C   LIG    1       29.830  16.846 184.129  0.00  0.00    +0.049 A 
ATOM     25  C   LIG    1       30.360  17.956 184.780  0.00  0.00    +0.008 A 
BRANCH  22  26
ATOM     26  O   LIG    1       32.084  16.633 181.209  0.00  0.00    -0.491 OA
ATOM     27  C   LIG    1       31.642  16.946 179.868  0.00  0.00    +0.277 C 
ENDBRANCH  22  26
BRANCH  23  28
ATOM     28  O   LIG    1       29.788  15.277 182.384  0.00  0.00    -0.491 OA
ATOM     29  C   LIG    1       28.377  14.974 182.312  0.00  0.00    +0.277 C 
ENDBRANCH  23  28
ENDBRANCH  19  20
ENDBRANCH   3  19
TORSDOF 7
ENDMDL
MODEL 5
REMARK VINA RESULT:      -7.4     32.819     35.216
REMARK  Name = ZINC000009107243
REMARK                            x       y       z     vdW  Elec       q    Type
REMARK                         _______ _______ _______ _____ _____    ______ ____
ROOT
ATOM      1  N   LIG    1       21.607  41.196 208.717  0.00  0.00    -0.285 N 
ATOM      2  H   LIG    1       21.533  41.966 208.038  0.00  0.00    +0.155 HD
ATOM      3  C   LIG    1       22.804  41.133 209.385  0.00  0.00    +0.222 C 
ATOM      4  O   LIG    1       22.953  40.384 210.328  0.00  0.00    -0.275 OA
ENDROOT
BRANCH   1   9
ATOM      5  N   LIG    1       16.955  38.139 209.502  0.00  0.00    -0.271 N 
ATOM      6  C   LIG    1       18.131  38.929 209.293  0.00  0.00    +0.040 A 
ATOM      7  C   LIG    1       18.300  39.692 208.130  0.00  0.00    +0.025 A 
ATOM      8  C   LIG    1       19.457  40.442 207.961  0.00  0.00    +0.025 A 
ATOM      9  C   LIG    1       20.439  40.430 208.953  0.00  0.00    +0.034 A 
ATOM     10  C   LIG    1       20.276  39.668 210.113  0.00  0.00    +0.028 A 
ATOM     11  C   LIG    1       19.116  38.920 210.293  0.00  0.00    -0.024 A 
ATOM     12  C   LIG    1       18.926  38.094 211.550  0.00  0.00    +0.046 C 
ATOM     13  C   LIG    1       17.448  38.269 211.942  0.00  0.00    +0.101 C 
ATOM     14  C   LIG    1       16.629  37.737 210.786  0.00  0.00    +0.220 C 
ATOM     15  O   LIG    1       15.702  36.969 210.970  0.00  0.00    -0.275 OA
BRANCH   5  16
ATOM     16  C   LIG    1       16.128  37.667 208.372  0.00  0.00    +0.113 C 
BRANCH  16  18
ATOM     17  C   LIG    1       15.880  35.281 207.762  0.00  0.00    +0.005 C 
ATOM     18  C   LIG    1       16.870  36.453 207.778  0.00  0.00    +0.016 C 
ENDBRANCH  16  18
ENDBRANCH   5  16
ENDBRANCH   1   9
BRANCH   3  19
ATOM     19  C   LIG    1       23.924  42.036 208.902  0.00  0.00    +0.131 C 
BRANCH  19  20
ATOM     20  C   LIG    1       23.548  43.474 209.233  0.00  0.00    -0.035 A 
ATOM     21  C   LIG    1       23.926  44.517 208.385  0.00  0.00    +0.053 A 
ATOM     22  C   LIG    1       23.551  45.831 208.678  0.00  0.00    +0.162 A 
ATOM     23  C   LIG    1       22.792  46.100 209.831  0.00  0.00    +0.161 A 
ATOM     24  C   LIG    1       22.424  45.059 210.676  0.00  0.00    +0.049 A 
ATOM     25  C   LIG    1       22.800  43.752 210.379  0.00  0.00    +0.008 A 
BRANCH  22  26
ATOM     26  O   LIG    1       23.928  46.859 207.821  0.00  0.00    -0.491 OA
ATOM     27  C   LIG    1       25.199  47.549 207.810  0.00  0.00    +0.277 C 
ENDBRANCH  22  26
BRANCH  23  28
ATOM     28  O   LIG    1       22.357  47.361 210.224  0.00  0.00    -0.491 OA
ATOM     29  C   LIG    1       21.317  47.688 211.172  0.00  0.00    +0.277 C 
ENDBRANCH  23  28
ENDBRANCH  19  20
ENDBRANCH   3  19
TORSDOF 7
ENDMDL
MODEL 6
REMARK VINA RESULT:      -7.4     25.990     27.598
REMARK  Name = ZINC000009107243
REMARK                            x       y       z     vdW  Elec       q    Type
REMARK                         _______ _______ _______ _____ _____    ______ ____
ROOT
ATOM      1  N   LIG    1       24.116  42.285 187.349  0.00  0.00    -0.285 N 
ATOM      2  H   LIG    1       23.256  41.831 187.686  0.00  0.00    +0.155 HD
ATOM      3  C   LIG    1       25.084  42.462 188.304  0.00  0.00    +0.222 C 
ATOM      4  O   LIG    1       26.201  42.825 187.999  0.00  0.00    -0.275 OA
ENDROOT
BRANCH   1   9
ATOM      5  N   LIG    1       24.444  43.354 181.840  0.00  0.00    -0.271 N 
ATOM      6  C   LIG    1       24.343  43.083 183.242  0.00  0.00    +0.040 A 
ATOM      7  C   LIG    1       23.310  43.625 184.017  0.00  0.00    +0.025 A 
ATOM      8  C   LIG    1       23.248  43.343 185.376  0.00  0.00    +0.025 A 
ATOM      9  C   LIG    1       24.216  42.521 185.956  0.00  0.00    +0.034 A 
ATOM     10  C   LIG    1       25.249  41.980 185.187  0.00  0.00    +0.028 A 
ATOM     11  C   LIG    1       25.314  42.252 183.823  0.00  0.00    -0.024 A 
ATOM     12  C   LIG    1       26.429  41.666 182.978  0.00  0.00    +0.046 C 
ATOM     13  C   LIG    1       25.769  41.250 181.652  0.00  0.00    +0.101 C 
ATOM     14  C   LIG    1       25.197  42.510 181.040  0.00  0.00    +0.220 C 
ATOM     15  O   LIG    1       25.392  42.789 179.870  0.00  0.00    -0.275 OA
BRANCH   5  16
ATOM     16  C   LIG    1       23.838  44.559 181.238  0.00  0.00    +0.113 C 
BRANCH  16  18
ATOM     17  C   LIG    1       24.103  46.803 182.250  0.00  0.00    +0.005 C 
ATOM     18  C   LIG    1       24.843  45.705 181.473  0.00  0.00    +0.016 C 
ENDBRANCH  16  18
ENDBRANCH   5  16
ENDBRANCH   1   9
BRANCH   3  19
ATOM     19  C   LIG    1       24.705  42.181 189.747  0.00  0.00    +0.131 C 
BRANCH  19  20
ATOM     20  C   LIG    1       23.735  43.264 190.200  0.00  0.00    -0.035 A 
ATOM     21  C   LIG    1       23.139  44.115 189.268  0.00  0.00    +0.053 A 
ATOM     22  C   LIG    1       22.226  45.086 189.687  0.00  0.00    +0.162 A 
ATOM     23  C   LIG    1       21.909  45.203 191.052  0.00  0.00    +0.161 A 
ATOM     24  C   LIG    1       22.510  44.357 191.978  0.00  0.00    +0.049 A 
ATOM     25  C   LIG    1       23.419  43.391 191.555  0.00  0.00    +0.008 A 
BRANCH  22  26
ATOM     26  O   LIG    1       21.634  45.923 188.747  0.00  0.00    -0.491 OA
ATOM     27  C   LIG    1       22.078  46.140 187.388  0.00  0.00    +0.277 C 
ENDBRANCH  22  26
BRANCH  23  28
ATOM     28  O   LIG    1       21.015  46.123 191.587  0.00  0.00    -0.491 OA
ATOM     29  C   LIG    1       19.591  45.970 191.785  0.00  0.00    +0.277 C 
ENDBRANCH  23  28
ENDBRANCH  19  20
ENDBRANCH   3  19
TORSDOF 7
ENDMDL
MODEL 7
REMARK VINA RESULT:      -7.4     32.096     35.506
REMARK  Name = ZINC000009107243
REMARK                            x       y       z     vdW  Elec       q    Type
REMARK                         _______ _______ _______ _____ _____    ______ ____
ROOT
ATOM      1  N   LIG    1       21.112  41.896 209.382  0.00  0.00    -0.285 N 
ATOM      2  H   LIG    1       20.432  42.669 209.395  0.00  0.00    +0.155 HD
ATOM      3  C   LIG    1       20.689  40.772 208.720  0.00  0.00    +0.222 C 
ATOM      4  O   LIG    1       21.456  39.861 208.487  0.00  0.00    -0.275 OA
ENDROOT
BRANCH   1   9
ATOM      5  N   LIG    1       26.194  42.838 211.592  0.00  0.00    -0.271 N 
ATOM      6  C   LIG    1       24.892  42.602 211.045  0.00  0.00    +0.040 A 
ATOM      7  C   LIG    1       23.841  42.127 211.840  0.00  0.00    +0.025 A 
ATOM      8  C   LIG    1       22.594  41.905 211.271  0.00  0.00    +0.025 A 
ATOM      9  C   LIG    1       22.398  42.161 209.913  0.00  0.00    +0.034 A 
ATOM     10  C   LIG    1       23.444  42.633 209.115  0.00  0.00    +0.028 A 
ATOM     11  C   LIG    1       24.696  42.864 209.680  0.00  0.00    -0.024 A 
ATOM     12  C   LIG    1       25.836  43.381 208.824  0.00  0.00    +0.046 C 
ATOM     13  C   LIG    1       26.574  44.412 209.696  0.00  0.00    +0.101 C 
ATOM     14  C   LIG    1       27.072  43.669 210.917  0.00  0.00    +0.220 C 
ATOM     15  O   LIG    1       28.221  43.789 211.303  0.00  0.00    -0.275 OA
BRANCH   5  16
ATOM     16  C   LIG    1       26.657  42.150 212.815  0.00  0.00    +0.113 C 
BRANCH  16  18
ATOM     17  C   LIG    1       26.565  39.696 213.132  0.00  0.00    +0.005 C 
ATOM     18  C   LIG    1       27.267  40.813 212.346  0.00  0.00    +0.016 C 
ENDBRANCH  16  18
ENDBRANCH   5  16
ENDBRANCH   1   9
BRANCH   3  19
ATOM     19  C   LIG    1       19.234  40.716 208.292  0.00  0.00    +0.131 C 
BRANCH  19  20
ATOM     20  C   LIG    1       18.611  39.463 208.893  0.00  0.00    -0.035 A 
ATOM     21  C   LIG    1       17.805  38.630 208.114  0.00  0.00    +0.053 A 
ATOM     22  C   LIG    1       17.262  37.465 208.663  0.00  0.00    +0.162 A 
ATOM     23  C   LIG    1       17.531  37.134 210.003  0.00  0.00    +0.161 A 
ATOM     24  C   LIG    1       18.330  37.970 210.776  0.00  0.00    +0.049 A 
ATOM     25  C   LIG    1       18.868  39.129 210.224  0.00  0.00    +0.008 A 
BRANCH  22  26
ATOM     26  O   LIG    1       16.466  36.642 207.874  0.00  0.00    -0.491 OA
ATOM     27  C   LIG    1       16.891  35.454 207.167  0.00  0.00    +0.277 C 
ENDBRANCH  22  26
BRANCH  23  28
ATOM     28  O   LIG    1       17.054  36.003 210.657  0.00  0.00    -0.491 OA
ATOM     29  C   LIG    1       16.171  35.941 211.799  0.00  0.00    +0.277 C 
ENDBRANCH  23  28
ENDBRANCH  19  20
ENDBRANCH   3  19
TORSDOF 7
ENDMDL
MODEL 8
REMARK VINA RESULT:      -7.3     30.553     32.444
REMARK  Name = ZINC000009107243
REMARK                            x       y       z     vdW  Elec       q    Type
REMARK                         _______ _______ _______ _____ _____    ______ ____
ROOT
ATOM      1  N   LIG    1       19.610  48.366 187.979  0.00  0.00    -0.285 N 
ATOM      2  H   LIG    1       19.943  49.330 188.118  0.00  0.00    +0.155 HD
ATOM      3  C   LIG    1       18.523  48.249 187.150  0.00  0.00    +0.222 C 
ATOM      4  O   LIG    1       18.143  47.160 186.770  0.00  0.00    -0.275 OA
ENDROOT
BRANCH   1   9
ATOM      5  N   LIG    1       22.822  44.262 190.087  0.00  0.00    -0.271 N 
ATOM      6  C   LIG    1       22.003  45.299 189.535  0.00  0.00    +0.040 A 
ATOM      7  C   LIG    1       22.035  45.604 188.168  0.00  0.00    +0.025 A 
ATOM      8  C   LIG    1       21.229  46.620 187.671  0.00  0.00    +0.025 A 
ATOM      9  C   LIG    1       20.393  47.327 188.537  0.00  0.00    +0.034 A 
ATOM     10  C   LIG    1       20.360  47.027 189.902  0.00  0.00    +0.028 A 
ATOM     11  C   LIG    1       21.159  46.004 190.407  0.00  0.00    -0.024 A 
ATOM     12  C   LIG    1       21.127  45.668 191.885  0.00  0.00    +0.046 C 
ATOM     13  C   LIG    1       21.184  44.132 191.962  0.00  0.00    +0.101 C 
ATOM     14  C   LIG    1       22.486  43.715 191.314  0.00  0.00    +0.220 C 
ATOM     15  O   LIG    1       23.233  42.918 191.853  0.00  0.00    -0.275 OA
BRANCH   5  16
ATOM     16  C   LIG    1       24.065  43.821 189.422  0.00  0.00    +0.113 C 
BRANCH  16  18
ATOM     17  C   LIG    1       24.891  42.167 187.775  0.00  0.00    +0.005 C 
ATOM     18  C   LIG    1       23.629  42.877 188.283  0.00  0.00    +0.016 C 
ENDBRANCH  16  18
ENDBRANCH   5  16
ENDBRANCH   1   9
BRANCH   3  19
ATOM     19  C   LIG    1       17.823  49.527 186.726  0.00  0.00    +0.131 C 
BRANCH  19  20
ATOM     20  C   LIG    1       18.615  50.142 185.579  0.00  0.00    -0.035 A 
ATOM     21  C   LIG    1       19.023  49.355 184.500  0.00  0.00    +0.053 A 
ATOM     22  C   LIG    1       19.721  49.931 183.436  0.00  0.00    +0.162 A 
ATOM     23  C   LIG    1       20.013  51.307 183.456  0.00  0.00    +0.161 A 
ATOM     24  C   LIG    1       19.610  52.085 184.535  0.00  0.00    +0.049 A 
ATOM     25  C   LIG    1       18.914  51.506 185.593  0.00  0.00    +0.008 A 
BRANCH  22  26
ATOM     26  O   LIG    1       20.116  49.137 182.365  0.00  0.00    -0.491 OA
ATOM     27  C   LIG    1       21.367  48.423 182.237  0.00  0.00    +0.277 C 
ENDBRANCH  22  26
BRANCH  23  28
ATOM     28  O   LIG    1       20.695  51.992 182.456  0.00  0.00    -0.491 OA
ATOM     29  C   LIG    1       20.266  52.247 181.100  0.00  0.00    +0.277 C 
ENDBRANCH  23  28
ENDBRANCH  19  20
ENDBRANCH   3  19
TORSDOF 7
ENDMDL
MODEL 9
REMARK VINA RESULT:      -7.3     30.820     34.405
REMARK  Name = ZINC000009107243
REMARK                            x       y       z     vdW  Elec       q    Type
REMARK                         _______ _______ _______ _____ _____    ______ ____
ROOT
ATOM      1  N   LIG    1       16.836  38.210 208.704  0.00  0.00    -0.285 N 
ATOM      2  H   LIG    1       16.852  37.757 207.780  0.00  0.00    +0.155 HD
ATOM      3  C   LIG    1       15.670  38.037 209.407  0.00  0.00    +0.222 C 
ATOM      4  O   LIG    1       15.589  38.372 210.570  0.00  0.00    -0.275 OA
ENDROOT
BRANCH   1   9
ATOM      5  N   LIG    1       21.586  40.692 210.398  0.00  0.00    -0.271 N 
ATOM      6  C   LIG    1       20.381  40.062 209.950  0.00  0.00    +0.040 A 
ATOM      7  C   LIG    1       19.816  40.369 208.705  0.00  0.00    +0.025 A 
ATOM      8  C   LIG    1       18.644  39.739 208.308  0.00  0.00    +0.025 A 
ATOM      9  C   LIG    1       18.040  38.804 209.151  0.00  0.00    +0.034 A 
ATOM     10  C   LIG    1       18.600  38.497 210.394  0.00  0.00    +0.028 A 
ATOM     11  C   LIG    1       19.779  39.118 210.797  0.00  0.00    -0.024 A 
ATOM     12  C   LIG    1       20.397  38.788 212.142  0.00  0.00    +0.046 C 
ATOM     13  C   LIG    1       21.915  38.727 211.897  0.00  0.00    +0.101 C 
ATOM     14  C   LIG    1       22.328  40.097 211.405  0.00  0.00    +0.220 C 
ATOM     15  O   LIG    1       23.289  40.675 211.880  0.00  0.00    -0.275 OA
BRANCH   5  16
ATOM     16  C   LIG    1       22.013  42.006 209.875  0.00  0.00    +0.113 C 
BRANCH  16  18
ATOM     17  C   LIG    1       23.917  43.090 208.722  0.00  0.00    +0.005 C 
ATOM     18  C   LIG    1       23.252  41.735 208.999  0.00  0.00    +0.016 C 
ENDBRANCH  16  18
ENDBRANCH   5  16
ENDBRANCH   1   9
BRANCH   3  19
ATOM     19  C   LIG    1       14.497  37.410 208.676  0.00  0.00    +0.131 C 
BRANCH  19  20
ATOM     20  C   LIG    1       14.775  35.920 208.526  0.00  0.00    -0.035 A 
ATOM     21  C   LIG    1       15.724  35.467 207.607  0.00  0.00    +0.053 A 
ATOM     22  C   LIG    1       15.998  34.101 207.496  0.00  0.00    +0.162 A 
ATOM     23  C   LIG    1       15.313  33.183 208.313  0.00  0.00    +0.161 A 
ATOM     24  C   LIG    1       14.364  33.639 209.222  0.00  0.00    +0.049 A 
ATOM     25  C   LIG    1       14.096  35.001 209.328  0.00  0.00    +0.008 A 
BRANCH  22  26
ATOM     26  O   LIG    1       16.950  33.664 206.581  0.00  0.00    -0.491 OA
ATOM     27  C   LIG    1       18.059  34.431 206.061  0.00  0.00    +0.277 C 
ENDBRANCH  22  26
BRANCH  23  28
ATOM     28  O   LIG    1       15.502  31.806 208.298  0.00  0.00    -0.491 OA
ATOM     29  C   LIG    1       14.696  30.790 208.935  0.00  0.00    +0.277 C 
ENDBRANCH  23  28
ENDBRANCH  19  20
ENDBRANCH   3  19
TORSDOF 7
ENDMDL
