REMARK VINA RESULT:      -7.3      2.435      4.769
REMARK  Name = ZINC000000538069
REMARK                            x       y       z     vdW  Elec       q    Type
REMARK                         _______ _______ _______ _____ _____    ______ ____
ROOT
ATOM      1  C   LIG    1       20.142  47.428 187.802  0.00  0.00    +0.248 C 
ATOM      2  N   LIG    1       20.734  47.489 186.575  0.00  0.00    -0.307 N 
ATOM      3  H   LIG    1       21.683  47.085 186.515  0.00  0.00    +0.149 HD
ATOM      4  O   LIG    1       19.130  48.109 187.950  0.00  0.00    -0.270 OA
ENDROOT
BRANCH   1   9
ATOM      5  C   LIG    1       21.671  44.984 190.985  0.00  0.00    +0.049 A 
ATOM      6  C   LIG    1       20.701  45.980 191.226  0.00  0.00    +0.063 A 
ATOM      7 CL   LIG    1       20.079  46.238 192.823  0.00  0.00    -0.082 Cl
ATOM      8  C   LIG    1       20.229  46.757 190.176  0.00  0.00    +0.038 A 
ATOM      9  C   LIG    1       20.697  46.575 188.862  0.00  0.00    +0.080 A 
ATOM     10  C   LIG    1       21.684  45.583 188.647  0.00  0.00    +0.134 A 
ATOM     11  C   LIG    1       22.165  44.795 189.694  0.00  0.00    +0.070 A 
BRANCH   5  13
ATOM     12  C   LIG    1       23.281  43.302 191.853  0.00  0.00    +0.125 C 
ATOM     13  N   LIG    1       22.138  44.199 192.056  0.00  0.00    -0.346 N 
ATOM     14  H   LIG    1       21.360  43.759 192.582  0.00  0.00    +0.146 HD
ENDBRANCH   5  13
BRANCH  10  15
ATOM     15  O   LIG    1       22.201  45.383 187.376  0.00  0.00    -0.494 OA
ATOM     16  C   LIG    1       22.960  44.256 186.879  0.00  0.00    +0.277 C 
ENDBRANCH  10  15
ENDBRANCH   1   9
BRANCH   2  17
ATOM     17  C   LIG    1       20.488  48.549 185.594  0.00  0.00    +0.091 C 
ATOM     18  C   LIG    1       21.440  48.419 184.384  0.00  0.00    +0.074 C 
ATOM     19  C   LIG    1       22.904  48.192 184.806  0.00  0.00    +0.026 C 
ATOM     20  N   LIG    1       20.970  47.210 183.696  0.00  0.00    -0.294 NA
ATOM     21  C   LIG    1       19.522  47.043 183.979  0.00  0.00    +0.087 C 
ATOM     22  C   LIG    1       19.162  48.205 184.927  0.00  0.00    +0.039 C 
BRANCH  20  23
ATOM     23  C   LIG    1       21.257  47.239 182.247  0.00  0.00    +0.120 C 
BRANCH  23  24
ATOM     24  C   LIG    1       21.524  45.796 181.856  0.00  0.00    -0.033 A 
ATOM     25  C   LIG    1       21.078  45.291 180.634  0.00  0.00    +0.005 A 
ATOM     26  C   LIG    1       21.335  43.967 180.285  0.00  0.00    +0.000 A 
ATOM     27  C   LIG    1       22.039  43.141 181.157  0.00  0.00    +0.000 A 
ATOM     28  C   LIG    1       22.486  43.639 182.376  0.00  0.00    +0.000 A 
ATOM     29  C   LIG    1       22.228  44.961 182.724  0.00  0.00    +0.005 A 
ENDBRANCH  23  24
ENDBRANCH  20  23
ENDBRANCH   2  17
TORSDOF 6
