REMARK VINA RESULT:      -6.9      1.797      8.991
REMARK  Name = ZINC000006084756
REMARK                            x       y       z     vdW  Elec       q    Type
REMARK                         _______ _______ _______ _____ _____    ______ ____
ROOT
ATOM      1  C   LIG    1       18.913  40.996 208.979  0.00  0.00    +0.125 C 
ENDROOT
BRANCH   1   2
ATOM      2  N   LIG    1       17.996  40.047 208.305  0.00  0.00    -0.336 N 
ATOM      3  H   LIG    1       18.477  39.265 207.834  0.00  0.00    +0.147 HD
BRANCH   2   4
ATOM      4  C   LIG    1       16.785  39.689 208.896  0.00  0.00    +0.079 C 
ATOM      5  S   LIG    1       15.780  40.877 209.537  0.00  0.00    -0.035 S 
BRANCH   4   6
ATOM      6  C   LIG    1       16.475  38.255 208.899  0.00  0.00    +0.003 A 
ATOM      7  C   LIG    1       15.226  37.805 208.446  0.00  0.00    +0.012 A 
ATOM      8  C   LIG    1       14.913  36.452 208.444  0.00  0.00    +0.024 A 
ATOM      9  C   LIG    1       15.851  35.524 208.898  0.00  0.00    +0.033 A 
ATOM     10  C   LIG    1       17.096  35.951 209.368  0.00  0.00    +0.024 A 
ATOM     11  C   LIG    1       17.403  37.306 209.364  0.00  0.00    +0.012 A 
BRANCH   9  12
ATOM     12  N   LIG    1       15.461  34.163 208.883  0.00  0.00    -0.286 N 
ATOM     13  H   LIG    1       14.924  33.834 209.692  0.00  0.00    +0.155 HD
ATOM     14  C   LIG    1       15.659  33.232 207.896  0.00  0.00    +0.214 C 
ATOM     15  O   LIG    1       16.205  33.515 206.854  0.00  0.00    -0.276 OA
ATOM     16  C   LIG    1       15.137  31.851 208.180  0.00  0.00    +0.109 C 
ENDBRANCH   9  12
ENDBRANCH   4   6
ENDBRANCH   2   4
ENDBRANCH   1   2
BRANCH   1  17
ATOM     17  C   LIG    1       20.265  40.261 209.233  0.00  0.00    +0.104 C 
BRANCH  17  21
ATOM     18  C   LIG    1       23.426  43.144 209.858  0.00  0.00    +0.120 A 
ATOM     19  C   LIG    1       23.712  41.976 209.162  0.00  0.00    +0.046 A 
ATOM     20  C   LIG    1       22.705  41.045 208.935  0.00  0.00    +0.009 A 
ATOM     21  C   LIG    1       21.404  41.273 209.405  0.00  0.00    -0.029 A 
ATOM     22  C   LIG    1       21.129  42.465 210.081  0.00  0.00    +0.009 A 
ATOM     23  C   LIG    1       22.133  43.400 210.313  0.00  0.00    +0.046 A 
BRANCH  18  25
ATOM     24  C   LIG    1       25.820  43.822 209.606  0.00  0.00    +0.277 C 
ATOM     25  O   LIG    1       24.465  44.021 210.071  0.00  0.00    -0.495 OA
ENDBRANCH  18  25
ENDBRANCH  17  21
BRANCH  17  26
ATOM     26  N   LIG    1       20.223  39.371 210.430  0.00  0.00    -0.294 NA
ATOM     27  C   LIG    1       19.445  39.921 211.555  0.00  0.00    +0.085 C 
ATOM     28  C   LIG    1       20.337  39.648 212.770  0.00  0.00    +0.017 C 
ATOM     29  C   LIG    1       21.135  38.425 212.328  0.00  0.00    +0.017 C 
ATOM     30  C   LIG    1       21.497  38.815 210.900  0.00  0.00    +0.085 C 
ENDBRANCH  17  26
ENDBRANCH   1  17
TORSDOF 8
