REMARK VINA RESULT:      -6.6     30.012     33.314
REMARK  Name = ZINC000000538627
REMARK                            x       y       z     vdW  Elec       q    Type
REMARK                         _______ _______ _______ _____ _____    ______ ____
ROOT
ATOM      1  C   LIG    1       22.944  47.614 182.945  0.00  0.00    +0.166 C 
ENDROOT
BRANCH   1   2
ATOM      2  C   LIG    1       22.724  49.019 183.551  0.00  0.00    -0.007 A 
ATOM      3  C   LIG    1       23.523  49.569 184.565  0.00  0.00    +0.007 A 
ATOM      4  C   LIG    1       23.257  50.840 185.065  0.00  0.00    +0.000 A 
ATOM      5  C   LIG    1       22.192  51.581 184.564  0.00  0.00    +0.000 A 
ATOM      6  C   LIG    1       21.393  51.050 183.562  0.00  0.00    +0.000 A 
ATOM      7  C   LIG    1       21.657  49.779 183.060  0.00  0.00    +0.007 A 
ENDBRANCH   1   2
BRANCH   1   8
ATOM      8  C   LIG    1       24.226  47.645 182.083  0.00  0.00    -0.007 A 
ATOM      9  C   LIG    1       25.412  47.051 182.532  0.00  0.00    +0.007 A 
ATOM     10  C   LIG    1       26.571  47.107 181.765  0.00  0.00    +0.000 A 
ATOM     11  C   LIG    1       26.563  47.756 180.536  0.00  0.00    +0.000 A 
ATOM     12  C   LIG    1       25.393  48.345 180.073  0.00  0.00    +0.000 A 
ATOM     13  C   LIG    1       24.233  48.290 180.840  0.00  0.00    +0.007 A 
ENDBRANCH   1   8
BRANCH   1  15
ATOM     14  C   LIG    1       21.896  46.285 181.045  0.00  0.00    +0.195 C 
ATOM     15  O   LIG    1       21.785  47.335 182.057  0.00  0.00    -0.363 OA
ENDBRANCH   1  15
BRANCH   1  16
ATOM     16  C   LIG    1       23.062  46.500 184.024  0.00  0.00    +0.325 C 
BRANCH  16  17
ATOM     17  C   LIG    1       21.805  46.517 184.876  0.00  0.00    +0.350 C 
ATOM     18  O   LIG    1       21.832  46.638 186.097  0.00  0.00    -0.247 OA
BRANCH  17  19
ATOM     19  O   LIG    1       20.585  46.332 184.295  0.00  0.00    -0.478 OA
ATOM     20  H   LIG    1       20.522  45.458 183.901  0.00  0.00    +0.295 HD
ENDBRANCH  17  19
ENDBRANCH  16  17
BRANCH  16  21
ATOM     21  O   LIG    1       23.167  45.170 183.378  0.00  0.00    -0.444 OA
BRANCH  21  22
ATOM     22  C   LIG    1       23.874  44.169 183.939  0.00  0.00    +0.319 A 
ATOM     23  N   LIG    1       24.964  43.729 183.315  0.00  0.00    -0.200 NA
ATOM     24  C   LIG    1       25.657  42.759 183.883  0.00  0.00    +0.045 A 
ATOM     25  C   LIG    1       26.895  42.260 183.181  0.00  0.00    +0.066 C 
ATOM     26  C   LIG    1       25.227  42.220 185.087  0.00  0.00    +0.046 A 
ATOM     27  C   LIG    1       24.074  42.721 185.676  0.00  0.00    +0.045 A 
ATOM     28  C   LIG    1       23.557  42.190 186.990  0.00  0.00    +0.066 C 
ATOM     29  N   LIG    1       23.409  43.699 185.089  0.00  0.00    -0.200 NA
ENDBRANCH  21  22
ENDBRANCH  16  21
ENDBRANCH   1  16
TORSDOF 8
