MODEL 1
REMARK VINA RESULT:      -9.6      0.000      0.000
REMARK  Name = ZINC000006083105
REMARK                            x       y       z     vdW  Elec       q    Type
REMARK                         _______ _______ _______ _____ _____    ______ ____
ROOT
ATOM      1  C   LIG    1       26.077  42.516 185.784  0.00  0.00    +0.083 C 
ENDROOT
BRANCH   1   2
ATOM      2  C   LIG    1       25.436  42.424 184.413  0.00  0.00    +0.111 A 
ATOM      3  N   LIG    1       26.034  41.555 183.524  0.00  0.00    -0.310 N 
ATOM      4  H   LIG    1       26.899  41.061 183.783  0.00  0.00    +0.170 HD
ATOM      5  C   LIG    1       25.593  41.383 182.248  0.00  0.00    +0.260 A 
ATOM      6  O   LIG    1       26.243  40.589 181.568  0.00  0.00    -0.267 OA
ATOM      7  C   LIG    1       24.446  42.148 181.854  0.00  0.00    +0.075 A 
ATOM      8  C   LIG    1       23.751  42.192 180.619  0.00  0.00    -0.023 A 
ATOM      9  C   LIG    1       24.129  41.385 179.389  0.00  0.00    +0.037 C 
ATOM     10  C   LIG    1       22.933  41.404 178.418  0.00  0.00    +0.005 C 
ATOM     11  C   LIG    1       22.390  42.831 178.217  0.00  0.00    +0.005 C 
ATOM     12  C   LIG    1       21.750  43.372 179.509  0.00  0.00    +0.043 C 
ATOM     13  C   LIG    1       22.711  43.078 180.640  0.00  0.00    -0.004 A 
ATOM     14  S   LIG    1       22.549  43.862 182.178  0.00  0.00    -0.073 S 
ATOM     15  C   LIG    1       23.908  42.995 182.792  0.00  0.00    +0.116 A 
ATOM     16  N   LIG    1       24.419  43.129 184.080  0.00  0.00    -0.227 NA
ENDBRANCH   1   2
BRANCH   1  17
ATOM     17  C   LIG    1       25.370  41.489 186.708  0.00  0.00    +0.104 C 
BRANCH  17  20
ATOM     18  N   LIG    1       24.667  42.845 188.634  0.00  0.00    -0.285 N 
ATOM     19  H   LIG    1       25.672  42.850 188.841  0.00  0.00    +0.155 HD
ATOM     20  C   LIG    1       24.287  42.215 187.481  0.00  0.00    +0.218 C 
ATOM     21  O   LIG    1       23.129  42.218 187.116  0.00  0.00    -0.275 OA
BRANCH  18  25
ATOM     22  C   LIG    1       22.170  44.698 191.435  0.00  0.00    +0.121 A 
ATOM     23  C   LIG    1       23.080  43.719 191.843  0.00  0.00    +0.047 A 
ATOM     24  C   LIG    1       23.908  43.118 190.899  0.00  0.00    +0.027 A 
ATOM     25  C   LIG    1       23.822  43.505 189.560  0.00  0.00    +0.034 A 
ATOM     26  C   LIG    1       22.906  44.480 189.152  0.00  0.00    +0.027 A 
ATOM     27  C   LIG    1       22.080  45.078 190.097  0.00  0.00    +0.047 A 
BRANCH  22  28
ATOM     28  O   LIG    1       21.327  45.329 192.325  0.00  0.00    -0.492 OA
BRANCH  28  30
ATOM     29  C   LIG    1       20.399  47.487 192.194  0.00  0.00    +0.048 C 
ATOM     30  C   LIG    1       20.105  46.006 191.966  0.00  0.00    +0.225 C 
ENDBRANCH  28  30
ENDBRANCH  22  28
ENDBRANCH  18  25
ENDBRANCH  17  20
ENDBRANCH   1  17
TORSDOF 6
ENDMDL
MODEL 2
REMARK VINA RESULT:      -8.9     26.539     29.299
REMARK  Name = ZINC000006083105
REMARK                            x       y       z     vdW  Elec       q    Type
REMARK                         _______ _______ _______ _____ _____    ______ ____
ROOT
ATOM      1  C   LIG    1       26.513  15.800 190.100  0.00  0.00    +0.083 C 
ENDROOT
BRANCH   1   2
ATOM      2  C   LIG    1       26.458  15.780 191.615  0.00  0.00    +0.111 A 
ATOM      3  N   LIG    1       25.247  15.423 192.171  0.00  0.00    -0.310 N 
ATOM      4  H   LIG    1       24.430  15.249 191.569  0.00  0.00    +0.170 HD
ATOM      5  C   LIG    1       25.033  15.385 193.515  0.00  0.00    +0.260 A 
ATOM      6  O   LIG    1       23.894  15.068 193.858  0.00  0.00    -0.267 OA
ATOM      7  C   LIG    1       26.144  15.727 194.354  0.00  0.00    +0.075 A 
ATOM      8  C   LIG    1       26.246  15.778 195.767  0.00  0.00    -0.023 A 
ATOM      9  C   LIG    1       25.108  15.470 196.725  0.00  0.00    +0.037 C 
ATOM     10  C   LIG    1       25.707  15.251 198.127  0.00  0.00    +0.005 C 
ATOM     11  C   LIG    1       26.693  16.372 198.502  0.00  0.00    +0.005 C 
ATOM     12  C   LIG    1       27.952  16.329 197.616  0.00  0.00    +0.043 C 
ATOM     13  C   LIG    1       27.485  16.177 196.185  0.00  0.00    -0.004 A 
ATOM     14  S   LIG    1       28.557  16.478 194.856  0.00  0.00    -0.073 S 
ATOM     15  C   LIG    1       27.316  16.076 193.729  0.00  0.00    +0.116 A 
ATOM     16  N   LIG    1       27.461  16.103 192.344  0.00  0.00    -0.227 NA
ENDBRANCH   1   2
BRANCH   1  17
ATOM     17  C   LIG    1       27.565  16.860 189.677  0.00  0.00    +0.104 C 
BRANCH  17  20
ATOM     18  N   LIG    1       27.947  16.535 187.271  0.00  0.00    -0.285 N 
ATOM     19  H   LIG    1       28.504  15.736 187.593  0.00  0.00    +0.155 HD
ATOM     20  C   LIG    1       27.293  17.248 188.239  0.00  0.00    +0.218 C 
ATOM     21  O   LIG    1       26.554  18.168 187.949  0.00  0.00    -0.275 OA
BRANCH  18  25
ATOM     22  C   LIG    1       27.779  17.161 183.137  0.00  0.00    +0.121 A 
ATOM     23  C   LIG    1       26.630  16.782 183.838  0.00  0.00    +0.047 A 
ATOM     24  C   LIG    1       26.702  16.585 185.215  0.00  0.00    +0.027 A 
ATOM     25  C   LIG    1       27.919  16.774 185.875  0.00  0.00    +0.034 A 
ATOM     26  C   LIG    1       29.068  17.146 185.171  0.00  0.00    +0.027 A 
ATOM     27  C   LIG    1       28.993  17.341 183.796  0.00  0.00    +0.047 A 
BRANCH  22  28
ATOM     28  O   LIG    1       27.766  17.372 181.774  0.00  0.00    -0.492 OA
BRANCH  28  30
ATOM     29  C   LIG    1       27.941  17.068 179.447  0.00  0.00    +0.048 C 
ATOM     30  C   LIG    1       27.813  16.330 180.778  0.00  0.00    +0.225 C 
ENDBRANCH  28  30
ENDBRANCH  22  28
ENDBRANCH  18  25
ENDBRANCH  17  20
ENDBRANCH   1  17
TORSDOF 6
ENDMDL
MODEL 3
REMARK VINA RESULT:      -8.8     19.796     23.441
REMARK  Name = ZINC000006083105
REMARK                            x       y       z     vdW  Elec       q    Type
REMARK                         _______ _______ _______ _____ _____    ______ ____
ROOT
ATOM      1  C   LIG    1       28.371  30.809 203.949  0.00  0.00    +0.083 C 
ENDROOT
BRANCH   1   2
ATOM      2  C   LIG    1       27.723  31.785 202.986  0.00  0.00    +0.111 A 
ATOM      3  N   LIG    1       26.349  31.881 203.056  0.00  0.00    -0.310 N 
ATOM      4  H   LIG    1       25.817  31.268 203.690  0.00  0.00    +0.170 HD
ATOM      5  C   LIG    1       25.621  32.692 202.239  0.00  0.00    +0.260 A 
ATOM      6  O   LIG    1       24.403  32.654 202.409  0.00  0.00    -0.267 OA
ATOM      7  C   LIG    1       26.355  33.472 201.287  0.00  0.00    +0.075 A 
ATOM      8  C   LIG    1       25.902  34.400 200.315  0.00  0.00    -0.023 A 
ATOM      9  C   LIG    1       24.444  34.756 200.078  0.00  0.00    +0.037 C 
ATOM     10  C   LIG    1       24.397  36.053 199.248  0.00  0.00    +0.005 C 
ATOM     11  C   LIG    1       25.338  35.980 198.031  0.00  0.00    +0.005 C 
ATOM     12  C   LIG    1       26.814  35.945 198.468  0.00  0.00    +0.043 C 
ATOM     13  C   LIG    1       26.927  34.921 199.577  0.00  0.00    -0.004 A 
ATOM     14  S   LIG    1       28.469  34.301 200.069  0.00  0.00    -0.073 S 
ATOM     15  C   LIG    1       27.720  33.320 201.273  0.00  0.00    +0.116 A 
ATOM     16  N   LIG    1       28.400  32.461 202.133  0.00  0.00    -0.227 NA
ENDBRANCH   1   2
BRANCH   1  17
ATOM     17  C   LIG    1       27.247  29.935 204.566  0.00  0.00    +0.104 C 
BRANCH  17  20
ATOM     18  N   LIG    1       27.130  27.715 205.614  0.00  0.00    -0.285 N 
ATOM     19  H   LIG    1       26.285  28.100 206.048  0.00  0.00    +0.155 HD
ATOM     20  C   LIG    1       27.776  28.524 204.719  0.00  0.00    +0.218 C 
ATOM     21  O   LIG    1       28.745  28.129 204.102  0.00  0.00    -0.275 OA
BRANCH  18  25
ATOM     22  C   LIG    1       28.127  23.784 206.649  0.00  0.00    +0.121 A 
ATOM     23  C   LIG    1       27.562  24.061 205.400  0.00  0.00    +0.047 A 
ATOM     24  C   LIG    1       27.244  25.375 205.069  0.00  0.00    +0.027 A 
ATOM     25  C   LIG    1       27.497  26.398 205.987  0.00  0.00    +0.034 A 
ATOM     26  C   LIG    1       28.056  26.118 207.238  0.00  0.00    +0.027 A 
ATOM     27  C   LIG    1       28.372  24.804 207.566  0.00  0.00    +0.047 A 
BRANCH  22  28
ATOM     28  O   LIG    1       28.465  22.502 207.030  0.00  0.00    -0.492 OA
BRANCH  28  30
ATOM     29  C   LIG    1       30.601  21.846 206.291  0.00  0.00    +0.048 C 
ATOM     30  C   LIG    1       29.110  21.533 206.179  0.00  0.00    +0.225 C 
ENDBRANCH  28  30
ENDBRANCH  22  28
ENDBRANCH  18  25
ENDBRANCH  17  20
ENDBRANCH   1  17
TORSDOF 6
ENDMDL
MODEL 4
REMARK VINA RESULT:      -8.7      1.859      2.455
REMARK  Name = ZINC000006083105
REMARK                            x       y       z     vdW  Elec       q    Type
REMARK                         _______ _______ _______ _____ _____    ______ ____
ROOT
ATOM      1  C   LIG    1       26.035  42.381 184.973  0.00  0.00    +0.083 C 
ENDROOT
BRANCH   1   2
ATOM      2  C   LIG    1       24.990  42.825 183.968  0.00  0.00    +0.111 A 
ATOM      3  N   LIG    1       24.328  43.999 184.262  0.00  0.00    -0.310 N 
ATOM      4  H   LIG    1       24.509  44.488 185.149  0.00  0.00    +0.170 HD
ATOM      5  C   LIG    1       23.346  44.512 183.472  0.00  0.00    +0.260 A 
ATOM      6  O   LIG    1       22.835  45.556 183.877  0.00  0.00    -0.267 OA
ATOM      7  C   LIG    1       23.024  43.775 182.285  0.00  0.00    +0.075 A 
ATOM      8  C   LIG    1       22.070  44.041 181.270  0.00  0.00    -0.023 A 
ATOM      9  C   LIG    1       21.135  45.238 181.258  0.00  0.00    +0.037 C 
ATOM     10  C   LIG    1       20.557  45.380 179.837  0.00  0.00    +0.005 C 
ATOM     11  C   LIG    1       20.029  44.035 179.304  0.00  0.00    +0.005 C 
ATOM     12  C   LIG    1       21.177  43.036 179.073  0.00  0.00    +0.043 C 
ATOM     13  C   LIG    1       22.054  43.072 180.306  0.00  0.00    -0.004 A 
ATOM     14  S   LIG    1       23.220  41.825 180.612  0.00  0.00    -0.073 S 
ATOM     15  C   LIG    1       23.722  42.614 182.061  0.00  0.00    +0.116 A 
ATOM     16  N   LIG    1       24.711  42.141 182.921  0.00  0.00    -0.227 NA
ENDBRANCH   1   2
BRANCH   1  17
ATOM     17  C   LIG    1       25.351  41.407 185.969  0.00  0.00    +0.104 C 
BRANCH  17  20
ATOM     18  N   LIG    1       23.829  42.464 187.583  0.00  0.00    -0.285 N 
ATOM     19  H   LIG    1       23.106  42.101 186.953  0.00  0.00    +0.155 HD
ATOM     20  C   LIG    1       25.122  42.146 187.272  0.00  0.00    +0.218 C 
ATOM     21  O   LIG    1       26.041  42.471 187.997  0.00  0.00    -0.275 OA
BRANCH  18  25
ATOM     22  C   LIG    1       22.548  44.622 190.932  0.00  0.00    +0.121 A 
ATOM     23  C   LIG    1       23.599  43.707 191.045  0.00  0.00    +0.047 A 
ATOM     24  C   LIG    1       24.018  43.004 189.919  0.00  0.00    +0.027 A 
ATOM     25  C   LIG    1       23.385  43.224 188.693  0.00  0.00    +0.034 A 
ATOM     26  C   LIG    1       22.329  44.135 188.584  0.00  0.00    +0.027 A 
ATOM     27  C   LIG    1       21.913  44.836 189.711  0.00  0.00    +0.047 A 
BRANCH  22  28
ATOM     28  O   LIG    1       22.094  45.349 192.013  0.00  0.00    -0.492 OA
BRANCH  28  30
ATOM     29  C   LIG    1       20.593  47.161 191.986  0.00  0.00    +0.048 C 
ATOM     30  C   LIG    1       20.711  45.665 192.270  0.00  0.00    +0.225 C 
ENDBRANCH  28  30
ENDBRANCH  22  28
ENDBRANCH  18  25
ENDBRANCH  17  20
ENDBRANCH   1  17
TORSDOF 6
ENDMDL
MODEL 5
REMARK VINA RESULT:      -8.6      3.981      9.754
REMARK  Name = ZINC000006083105
REMARK                            x       y       z     vdW  Elec       q    Type
REMARK                         _______ _______ _______ _____ _____    ______ ____
ROOT
ATOM      1  C   LIG    1       24.783  42.599 184.044  0.00  0.00    +0.083 C 
ENDROOT
BRANCH   1   2
ATOM      2  C   LIG    1       24.412  42.884 185.486  0.00  0.00    +0.111 A 
ATOM      3  N   LIG    1       25.039  42.105 186.437  0.00  0.00    -0.310 N 
ATOM      4  H   LIG    1       25.669  41.343 186.151  0.00  0.00    +0.170 HD
ATOM      5  C   LIG    1       24.791  42.222 187.770  0.00  0.00    +0.260 A 
ATOM      6  O   LIG    1       25.414  41.444 188.492  0.00  0.00    -0.267 OA
ATOM      7  C   LIG    1       23.837  43.218 188.162  0.00  0.00    +0.075 A 
ATOM      8  C   LIG    1       23.370  43.586 189.450  0.00  0.00    -0.023 A 
ATOM      9  C   LIG    1       23.819  42.935 190.747  0.00  0.00    +0.037 C 
ATOM     10  C   LIG    1       23.403  43.854 191.912  0.00  0.00    +0.005 C 
ATOM     11  C   LIG    1       21.934  44.297 191.787  0.00  0.00    +0.005 C 
ATOM     12  C   LIG    1       21.731  45.223 190.574  0.00  0.00    +0.043 C 
ATOM     13  C   LIG    1       22.432  44.578 189.398  0.00  0.00    -0.004 A 
ATOM     14  S   LIG    1       22.115  45.095 187.774  0.00  0.00    -0.073 S 
ATOM     15  C   LIG    1       23.250  43.951 187.160  0.00  0.00    +0.116 A 
ATOM     16  N   LIG    1       23.545  43.770 185.811  0.00  0.00    -0.227 NA
ENDBRANCH   1   2
BRANCH   1  17
ATOM     17  C   LIG    1       26.129  41.827 184.044  0.00  0.00    +0.104 C 
BRANCH  17  20
ATOM     18  N   LIG    1       26.856  43.832 182.823  0.00  0.00    -0.285 N 
ATOM     19  H   LIG    1       26.144  44.292 183.400  0.00  0.00    +0.155 HD
ATOM     20  C   LIG    1       27.060  42.500 183.056  0.00  0.00    +0.218 C 
ATOM     21  O   LIG    1       27.931  41.886 182.472  0.00  0.00    -0.275 OA
BRANCH  18  25
ATOM     22  C   LIG    1       28.867  46.319 180.123  0.00  0.00    +0.121 A 
ATOM     23  C   LIG    1       29.033  46.495 181.500  0.00  0.00    +0.047 A 
ATOM     24  C   LIG    1       28.363  45.654 182.384  0.00  0.00    +0.027 A 
ATOM     25  C   LIG    1       27.537  44.644 181.883  0.00  0.00    +0.034 A 
ATOM     26  C   LIG    1       27.367  44.474 180.505  0.00  0.00    +0.027 A 
ATOM     27  C   LIG    1       28.038  45.316 179.625  0.00  0.00    +0.047 A 
BRANCH  22  28
ATOM     28  O   LIG    1       29.508  47.120 179.202  0.00  0.00    -0.492 OA
BRANCH  28  30
ATOM     29  C   LIG    1       31.763  46.450 179.214  0.00  0.00    +0.048 C 
ATOM     30  C   LIG    1       30.837  47.656 179.359  0.00  0.00    +0.225 C 
ENDBRANCH  28  30
ENDBRANCH  22  28
ENDBRANCH  18  25
ENDBRANCH  17  20
ENDBRANCH   1  17
TORSDOF 6
ENDMDL
MODEL 6
REMARK VINA RESULT:      -8.1     23.294     26.000
REMARK  Name = ZINC000006083105
REMARK                            x       y       z     vdW  Elec       q    Type
REMARK                         _______ _______ _______ _____ _____    ______ ____
ROOT
ATOM      1  C   LIG    1       18.550  39.092 211.069  0.00  0.00    +0.083 C 
ENDROOT
BRANCH   1   2
ATOM      2  C   LIG    1       17.774  37.840 210.709  0.00  0.00    +0.111 A 
ATOM      3  N   LIG    1       17.114  37.219 211.749  0.00  0.00    -0.310 N 
ATOM      4  H   LIG    1       17.213  37.571 212.711  0.00  0.00    +0.170 HD
ATOM      5  C   LIG    1       16.398  36.072 211.590  0.00  0.00    +0.260 A 
ATOM      6  O   LIG    1       15.883  35.627 212.615  0.00  0.00    -0.267 OA
ATOM      7  C   LIG    1       16.344  35.525 210.266  0.00  0.00    +0.075 A 
ATOM      8  C   LIG    1       15.690  34.365 209.777  0.00  0.00    -0.023 A 
ATOM      9  C   LIG    1       14.876  33.411 210.633  0.00  0.00    +0.037 C 
ATOM     10  C   LIG    1       14.024  32.534 209.695  0.00  0.00    +0.005 C 
ATOM     11  C   LIG    1       14.868  31.948 208.548  0.00  0.00    +0.005 C 
ATOM     12  C   LIG    1       15.350  33.052 207.589  0.00  0.00    +0.043 C 
ATOM     13  C   LIG    1       15.903  34.173 208.441  0.00  0.00    -0.004 A 
ATOM     14  S   LIG    1       16.892  35.419 207.750  0.00  0.00    -0.073 S 
ATOM     15  C   LIG    1       17.029  36.196 209.283  0.00  0.00    +0.116 A 
ATOM     16  N   LIG    1       17.752  37.363 209.520  0.00  0.00    -0.227 NA
ENDBRANCH   1   2
BRANCH   1  17
ATOM     17  C   LIG    1       20.055  38.808 210.814  0.00  0.00    +0.104 C 
BRANCH  17  20
ATOM     18  N   LIG    1       21.630  40.678 210.567  0.00  0.00    -0.285 N 
ATOM     19  H   LIG    1       21.984  40.338 211.467  0.00  0.00    +0.155 HD
ATOM     20  C   LIG    1       20.621  39.952 209.997  0.00  0.00    +0.218 C 
ATOM     21  O   LIG    1       20.185  40.236 208.900  0.00  0.00    -0.275 OA
BRANCH  18  25
ATOM     22  C   LIG    1       23.350  44.155 208.995  0.00  0.00    +0.121 A 
ATOM     23  C   LIG    1       22.225  44.238 209.821  0.00  0.00    +0.047 A 
ATOM     24  C   LIG    1       21.670  43.072 210.341  0.00  0.00    +0.027 A 
ATOM     25  C   LIG    1       22.248  41.837 210.035  0.00  0.00    +0.034 A 
ATOM     26  C   LIG    1       23.369  41.755 209.203  0.00  0.00    +0.027 A 
ATOM     27  C   LIG    1       23.921  42.922 208.685  0.00  0.00    +0.047 A 
BRANCH  22  28
ATOM     28  O   LIG    1       23.943  45.276 208.454  0.00  0.00    -0.492 OA
BRANCH  28  30
ATOM     29  C   LIG    1       25.450  46.732 207.384  0.00  0.00    +0.048 C 
ATOM     30  C   LIG    1       25.090  45.261 207.580  0.00  0.00    +0.225 C 
ENDBRANCH  28  30
ENDBRANCH  22  28
ENDBRANCH  18  25
ENDBRANCH  17  20
ENDBRANCH   1  17
TORSDOF 6
ENDMDL
MODEL 7
REMARK VINA RESULT:      -7.9      4.419      6.059
REMARK  Name = ZINC000006083105
REMARK                            x       y       z     vdW  Elec       q    Type
REMARK                         _______ _______ _______ _____ _____    ______ ____
ROOT
ATOM      1  C   LIG    1       23.240  43.552 181.692  0.00  0.00    +0.083 C 
ENDROOT
BRANCH   1   2
ATOM      2  C   LIG    1       22.939  44.978 182.106  0.00  0.00    +0.111 A 
ATOM      3  N   LIG    1       23.791  45.944 181.613  0.00  0.00    -0.310 N 
ATOM      4  H   LIG    1       24.611  45.676 181.052  0.00  0.00    +0.170 HD
ATOM      5  C   LIG    1       23.667  47.265 181.917  0.00  0.00    +0.260 A 
ATOM      6  O   LIG    1       24.516  48.003 181.416  0.00  0.00    -0.267 OA
ATOM      7  C   LIG    1       22.583  47.628 182.782  0.00  0.00    +0.075 A 
ATOM      8  C   LIG    1       22.186  48.897 183.274  0.00  0.00    -0.023 A 
ATOM      9  C   LIG    1       22.898  50.203 182.963  0.00  0.00    +0.037 C 
ATOM     10  C   LIG    1       21.957  51.363 183.341  0.00  0.00    +0.005 C 
ATOM     11  C   LIG    1       21.362  51.172 184.749  0.00  0.00    +0.005 C 
ATOM     12  C   LIG    1       20.403  49.968 184.792  0.00  0.00    +0.043 C 
ATOM     13  C   LIG    1       21.102  48.817 184.102  0.00  0.00    -0.004 A 
ATOM     14  S   LIG    1       20.532  47.189 184.278  0.00  0.00    -0.073 S 
ATOM     15  C   LIG    1       21.779  46.612 183.237  0.00  0.00    +0.116 A 
ATOM     16  N   LIG    1       21.971  45.276 182.892  0.00  0.00    -0.227 NA
ENDBRANCH   1   2
BRANCH   1  17
ATOM     17  C   LIG    1       24.744  43.285 181.968  0.00  0.00    +0.104 C 
BRANCH  17  20
ATOM     18  N   LIG    1       24.408  42.591 184.301  0.00  0.00    -0.285 N 
ATOM     19  H   LIG    1       23.913  41.805 183.867  0.00  0.00    +0.155 HD
ATOM     20  C   LIG    1       24.996  43.484 183.448  0.00  0.00    +0.218 C 
ATOM     21  O   LIG    1       25.664  44.408 183.869  0.00  0.00    -0.275 OA
BRANCH  18  25
ATOM     22  C   LIG    1       24.405  42.803 188.481  0.00  0.00    +0.121 A 
ATOM     23  C   LIG    1       23.347  43.349 187.748  0.00  0.00    +0.047 A 
ATOM     24  C   LIG    1       23.360  43.263 186.359  0.00  0.00    +0.027 A 
ATOM     25  C   LIG    1       24.428  42.629 185.717  0.00  0.00    +0.034 A 
ATOM     26  C   LIG    1       25.488  42.090 186.452  0.00  0.00    +0.027 A 
ATOM     27  C   LIG    1       25.472  42.178 187.840  0.00  0.00    +0.047 A 
BRANCH  22  28
ATOM     28  O   LIG    1       24.444  42.857 189.859  0.00  0.00    -0.492 OA
BRANCH  28  30
ATOM     29  C   LIG    1       23.295  43.015 191.906  0.00  0.00    +0.048 C 
ATOM     30  C   LIG    1       23.716  43.803 190.667  0.00  0.00    +0.225 C 
ENDBRANCH  28  30
ENDBRANCH  22  28
ENDBRANCH  18  25
ENDBRANCH  17  20
ENDBRANCH   1  17
TORSDOF 6
ENDMDL
MODEL 8
REMARK VINA RESULT:      -7.9     23.488     25.047
REMARK  Name = ZINC000006083105
REMARK                            x       y       z     vdW  Elec       q    Type
REMARK                         _______ _______ _______ _____ _____    ______ ____
ROOT
ATOM      1  C   LIG    1       22.177  42.460 210.004  0.00  0.00    +0.083 C 
ENDROOT
BRANCH   1   2
ATOM      2  C   LIG    1       21.130  41.375 209.850  0.00  0.00    +0.111 A 
ATOM      3  N   LIG    1       20.472  41.337 208.638  0.00  0.00    -0.310 N 
ATOM      4  H   LIG    1       20.658  42.054 207.924  0.00  0.00    +0.170 HD
ATOM      5  C   LIG    1       19.488  40.439 208.358  0.00  0.00    +0.260 A 
ATOM      6  O   LIG    1       18.982  40.543 207.241  0.00  0.00    -0.267 OA
ATOM      7  C   LIG    1       19.159  39.502 209.392  0.00  0.00    +0.075 A 
ATOM      8  C   LIG    1       18.201  38.456 209.412  0.00  0.00    -0.023 A 
ATOM      9  C   LIG    1       17.269  38.118 208.261  0.00  0.00    +0.037 C 
ATOM     10  C   LIG    1       16.686  36.715 208.513  0.00  0.00    +0.005 C 
ATOM     11  C   LIG    1       16.152  36.574 209.951  0.00  0.00    +0.005 C 
ATOM     12  C   LIG    1       17.297  36.624 210.979  0.00  0.00    +0.043 C 
ATOM     13  C   LIG    1       18.178  37.796 210.609  0.00  0.00    -0.004 A 
ATOM     14  S   LIG    1       19.342  38.429 211.727  0.00  0.00    -0.073 S 
ATOM     15  C   LIG    1       19.852  39.603 210.573  0.00  0.00    +0.116 A 
ATOM     16  N   LIG    1       20.844  40.557 210.794  0.00  0.00    -0.227 NA
ENDBRANCH   1   2
BRANCH   1  17
ATOM     17  C   LIG    1       23.330  42.151 209.011  0.00  0.00    +0.104 C 
BRANCH  17  20
ATOM     18  N   LIG    1       23.686  44.572 209.235  0.00  0.00    -0.285 N 
ATOM     19  H   LIG    1       22.705  44.564 209.535  0.00  0.00    +0.155 HD
ATOM     20  C   LIG    1       24.248  43.355 208.963  0.00  0.00    +0.218 C 
ATOM     21  O   LIG    1       25.422  43.257 208.669  0.00  0.00    -0.275 OA
BRANCH  18  25
ATOM     22  C   LIG    1       25.504  48.340 209.119  0.00  0.00    +0.121 A 
ATOM     23  C   LIG    1       25.122  47.781 210.342  0.00  0.00    +0.047 A 
ATOM     24  C   LIG    1       24.525  46.523 210.362  0.00  0.00    +0.027 A 
ATOM     25  C   LIG    1       24.321  45.837 209.163  0.00  0.00    +0.034 A 
ATOM     26  C   LIG    1       24.698  46.400 207.940  0.00  0.00    +0.027 A 
ATOM     27  C   LIG    1       25.294  47.657 207.922  0.00  0.00    +0.047 A 
BRANCH  22  28
ATOM     28  O   LIG    1       26.102  49.580 209.038  0.00  0.00    -0.492 OA
BRANCH  28  30
ATOM     29  C   LIG    1       27.935  50.133 210.405  0.00  0.00    +0.048 C 
ATOM     30  C   LIG    1       26.450  50.403 210.170  0.00  0.00    +0.225 C 
ENDBRANCH  28  30
ENDBRANCH  22  28
ENDBRANCH  18  25
ENDBRANCH  17  20
ENDBRANCH   1  17
TORSDOF 6
ENDMDL
MODEL 9
REMARK VINA RESULT:      -7.7      4.751      8.359
REMARK  Name = ZINC000006083105
REMARK                            x       y       z     vdW  Elec       q    Type
REMARK                         _______ _______ _______ _____ _____    ______ ____
ROOT
ATOM      1  C   LIG    1       23.678  43.429 183.812  0.00  0.00    +0.083 C 
ENDROOT
BRANCH   1   2
ATOM      2  C   LIG    1       23.584  43.485 185.324  0.00  0.00    +0.111 A 
ATOM      3  N   LIG    1       24.297  42.524 186.010  0.00  0.00    -0.310 N 
ATOM      4  H   LIG    1       24.803  41.788 185.497  0.00  0.00    +0.170 HD
ATOM      5  C   LIG    1       24.291  42.427 187.368  0.00  0.00    +0.260 A 
ATOM      6  O   LIG    1       24.961  41.504 187.832  0.00  0.00    -0.267 OA
ATOM      7  C   LIG    1       23.505  43.392 188.079  0.00  0.00    +0.075 A 
ATOM      8  C   LIG    1       23.298  43.561 189.471  0.00  0.00    -0.023 A 
ATOM      9  C   LIG    1       23.906  42.677 190.546  0.00  0.00    +0.037 C 
ATOM     10  C   LIG    1       23.774  43.406 191.897  0.00  0.00    +0.005 C 
ATOM     11  C   LIG    1       22.347  43.942 192.113  0.00  0.00    +0.005 C 
ATOM     12  C   LIG    1       22.018  45.070 191.118  0.00  0.00    +0.043 C 
ATOM     13  C   LIG    1       22.450  44.596 189.748  0.00  0.00    -0.004 A 
ATOM     14  S   LIG    1       21.905  45.398 188.311  0.00  0.00    -0.073 S 
ATOM     15  C   LIG    1       22.819  44.315 187.328  0.00  0.00    +0.116 A 
ATOM     16  N   LIG    1       22.863  44.349 185.936  0.00  0.00    -0.227 NA
ENDBRANCH   1   2
BRANCH   1  17
ATOM     17  C   LIG    1       24.782  44.426 183.368  0.00  0.00    +0.104 C 
BRANCH  17  20
ATOM     18  N   LIG    1       23.485  46.484 183.719  0.00  0.00    -0.285 N 
ATOM     19  H   LIG    1       23.599  46.241 184.709  0.00  0.00    +0.155 HD
ATOM     20  C   LIG    1       24.106  45.665 182.817  0.00  0.00    +0.218 C 
ATOM     21  O   LIG    1       24.087  45.912 181.628  0.00  0.00    -0.275 OA
BRANCH  18  25
ATOM     22  C   LIG    1       21.144  49.831 182.809  0.00  0.00    +0.121 A 
ATOM     23  C   LIG    1       20.546  48.578 182.970  0.00  0.00    +0.047 A 
ATOM     24  C   LIG    1       21.339  47.476 183.280  0.00  0.00    +0.027 A 
ATOM     25  C   LIG    1       22.718  47.640 183.430  0.00  0.00    +0.034 A 
ATOM     26  C   LIG    1       23.315  48.893 183.262  0.00  0.00    +0.027 A 
ATOM     27  C   LIG    1       22.520  49.992 182.952  0.00  0.00    +0.047 A 
BRANCH  22  28
ATOM     28  O   LIG    1       20.408  50.957 182.505  0.00  0.00    -0.492 OA
BRANCH  28  30
ATOM     29  C   LIG    1       19.732  51.811 184.591  0.00  0.00    +0.048 C 
ATOM     30  C   LIG    1       20.412  52.178 183.273  0.00  0.00    +0.225 C 
ENDBRANCH  28  30
ENDBRANCH  22  28
ENDBRANCH  18  25
ENDBRANCH  17  20
ENDBRANCH   1  17
TORSDOF 6
ENDMDL
