REMARK VINA RESULT:      -9.9      7.725     12.145
REMARK  Name = ZINC000000603769
REMARK                            x       y       z     vdW  Elec       q    Type
REMARK                         _______ _______ _______ _____ _____    ______ ____
ROOT
ATOM      1  C   LIG    1       27.452  16.310 191.812  0.00  0.00    +0.139 A 
ATOM      2  N   LIG    1       26.573  15.912 192.764  0.00  0.00    -0.336 N 
ATOM      3  H   LIG    1       25.603  15.598 192.607  0.00  0.00    +0.167 HD
ATOM      4  C   LIG    1       27.156  15.983 193.969  0.00  0.00    +0.093 A 
ATOM      5  C   LIG    1       28.413  16.478 193.723  0.00  0.00    +0.099 A 
ATOM      6  N   LIG    1       28.586  16.651 192.384  0.00  0.00    -0.227 NA
ENDROOT
BRANCH   5   7
ATOM      7  C   LIG    1       29.437  16.813 194.703  0.00  0.00    +0.006 A 
ATOM      8  C   LIG    1       30.577  16.002 194.844  0.00  0.00    +0.059 A 
ATOM      9  C   LIG    1       31.522  16.338 195.800  0.00  0.00    +0.167 A 
ATOM     10  O   LIG    1       32.667  15.678 196.086  0.00  0.00    -0.453 OA
ATOM     11  C   LIG    1       33.322  16.442 197.173  0.00  0.00    +0.466 C 
ATOM     12  O   LIG    1       32.409  17.575 197.457  0.00  0.00    -0.453 OA
ATOM     13  C   LIG    1       31.375  17.444 196.600  0.00  0.00    +0.166 A 
ATOM     14  C   LIG    1       30.271  18.277 196.478  0.00  0.00    +0.050 A 
ATOM     15  C   LIG    1       29.306  17.957 195.522  0.00  0.00    +0.014 A 
ENDBRANCH   5   7
BRANCH   1  19
ATOM     16  C   LIG    1       26.511  16.409 187.628  0.00  0.00    +0.037 A 
ATOM     17  C   LIG    1       27.488  17.254 188.176  0.00  0.00    +0.014 A 
ATOM     18  C   LIG    1       27.781  17.213 189.533  0.00  0.00    +0.012 A 
ATOM     19  C   LIG    1       27.118  16.326 190.392  0.00  0.00    +0.017 A 
ATOM     20  C   LIG    1       26.145  15.476 189.841  0.00  0.00    +0.012 A 
ATOM     21  C   LIG    1       25.850  15.517 188.484  0.00  0.00    +0.014 A 
BRANCH  16  25
ATOM     22  N   LIG    1       25.572  15.385 185.599  0.00  0.00    -0.325 N 
ATOM     23  H   LIG    1       25.425  14.496 186.091  0.00  0.00    +0.145 HD
ATOM     24  H   LIG    1       25.411  15.453 184.586  0.00  0.00    +0.145 HD
ATOM     25  C   LIG    1       26.171  16.435 186.201  0.00  0.00    +0.242 C 
ATOM     26  O   LIG    1       26.403  17.372 185.457  0.00  0.00    -0.270 OA
ENDBRANCH  16  25
ENDBRANCH   1  19
BRANCH   4  27
ATOM     27  C   LIG    1       26.445  15.549 195.154  0.00  0.00    +0.089 A 
ATOM     28  N   LIG    1       25.147  15.897 195.259  0.00  0.00    -0.253 NA
ATOM     29  C   LIG    1       24.440  15.530 196.325  0.00  0.00    +0.111 A 
ATOM     30  C   LIG    1       24.998  14.777 197.353  0.00  0.00    +0.020 A 
ATOM     31  C   LIG    1       26.326  14.387 197.270  0.00  0.00    +0.004 A 
ATOM     32  C   LIG    1       27.049  14.775 196.154  0.00  0.00    +0.030 A 
ENDBRANCH   4  27
TORSDOF 4
