REMARK VINA RESULT:      -7.2      4.550      6.505
REMARK  Name = ZINC000009527204
REMARK                            x       y       z     vdW  Elec       q    Type
REMARK                         _______ _______ _______ _____ _____    ______ ____
ROOT
ATOM      1  O   LIG    1       25.494  42.127 179.393  0.00  0.00    -0.267 OA
ATOM      2  C   LIG    1       24.588  41.988 180.214  0.00  0.00    +0.282 C 
ATOM      3  N   LIG    1       24.577  42.880 181.282  0.00  0.00    -0.292 N 
ATOM      4  C   LIG    1       23.316  43.404 181.866  0.00  0.00    +0.127 C 
ATOM      5  C   LIG    1       23.055  44.782 181.206  0.00  0.00    +0.127 C 
ATOM      6  N   LIG    1       24.239  45.633 181.488  0.00  0.00    -0.294 N 
ATOM      7  C   LIG    1       24.291  46.411 182.639  0.00  0.00    +0.253 C 
ATOM      8  O   LIG    1       25.368  46.462 183.230  0.00  0.00    -0.269 OA
ATOM      9  C   LIG    1       25.498  45.102 180.895  0.00  0.00    +0.127 C 
ATOM     10  C   LIG    1       25.764  43.732 181.564  0.00  0.00    +0.127 C 
ENDROOT
BRANCH   7  11
ATOM     11  C   LIG    1       23.102  47.102 183.110  0.00  0.00    +0.075 A 
ATOM     12  S   LIG    1       23.060  48.835 183.224  0.00  0.00    -0.083 S 
ATOM     13  C   LIG    1       21.437  48.800 183.815  0.00  0.00    +0.024 A 
ATOM     14  C   LIG    1       20.644  49.937 184.213  0.00  0.00    -0.001 A 
ATOM     15  C   LIG    1       19.491  49.696 184.910  0.00  0.00    -0.002 A 
ATOM     16  C   LIG    1       19.049  48.310 185.357  0.00  0.00    +0.048 C 
ATOM     17  C   LIG    1       19.507  47.259 184.304  0.00  0.00    +0.041 C 
ATOM     18  S   LIG    1       18.654  51.155 185.302  0.00  0.00    -0.101 S 
ATOM     19  C   LIG    1       19.877  52.095 184.518  0.00  0.00    +0.046 A 
ATOM     20  C   LIG    1       20.864  51.312 183.992  0.00  0.00    +0.017 A 
ATOM     21  C   LIG    1       20.955  47.516 183.893  0.00  0.00    -0.032 A 
ATOM     22  C   LIG    1       21.892  46.559 183.495  0.00  0.00    +0.025 A 
ENDBRANCH   7  11
BRANCH   2  23
ATOM     23  C   LIG    1       23.571  40.946 180.059  0.00  0.00    +0.189 A 
ATOM     24  O   LIG    1       23.545  39.785 180.805  0.00  0.00    -0.458 OA
ATOM     25  C   LIG    1       22.497  39.045 180.383  0.00  0.00    +0.196 A 
ATOM     26  C   LIG    1       21.854  39.697 179.386  0.00  0.00    +0.042 A 
ATOM     27  C   LIG    1       22.532  40.897 179.176  0.00  0.00    +0.054 A 
ENDBRANCH   2  23
TORSDOF 2
