REMARK VINA RESULT:      -6.8     30.912     33.343
REMARK  Name = ZINC000006084756
REMARK                            x       y       z     vdW  Elec       q    Type
REMARK                         _______ _______ _______ _____ _____    ______ ____
ROOT
ATOM      1  C   LIG    1       37.007  18.255 187.789  0.00  0.00    +0.125 C 
ENDROOT
BRANCH   1   2
ATOM      2  N   LIG    1       37.043  16.921 188.433  0.00  0.00    -0.336 N 
ATOM      3  H   LIG    1       36.959  16.135 187.770  0.00  0.00    +0.147 HD
BRANCH   2   4
ATOM      4  C   LIG    1       37.907  16.669 189.498  0.00  0.00    +0.079 C 
ATOM      5  S   LIG    1       39.520  16.297 189.200  0.00  0.00    -0.035 S 
BRANCH   4   6
ATOM      6  C   LIG    1       37.315  16.762 190.837  0.00  0.00    +0.003 A 
ATOM      7  C   LIG    1       36.085  16.141 191.106  0.00  0.00    +0.012 A 
ATOM      8  C   LIG    1       35.507  16.219 192.366  0.00  0.00    +0.024 A 
ATOM      9  C   LIG    1       36.154  16.924 193.382  0.00  0.00    +0.033 A 
ATOM     10  C   LIG    1       37.373  17.562 193.133  0.00  0.00    +0.024 A 
ATOM     11  C   LIG    1       37.947  17.477 191.870  0.00  0.00    +0.012 A 
BRANCH   9  12
ATOM     12  N   LIG    1       35.502  16.976 194.638  0.00  0.00    -0.286 N 
ATOM     13  H   LIG    1       35.647  16.175 195.260  0.00  0.00    +0.155 HD
ATOM     14  C   LIG    1       34.741  17.990 195.159  0.00  0.00    +0.214 C 
ATOM     15  O   LIG    1       34.563  19.027 194.560  0.00  0.00    -0.276 OA
ATOM     16  C   LIG    1       34.164  17.744 196.525  0.00  0.00    +0.109 C 
ENDBRANCH   9  12
ENDBRANCH   4   6
ENDBRANCH   2   4
ENDBRANCH   1   2
BRANCH   1  17
ATOM     17  C   LIG    1       36.096  19.182 188.651  0.00  0.00    +0.104 C 
BRANCH  17  21
ATOM     18  C   LIG    1       38.425  21.903 191.073  0.00  0.00    +0.120 A 
ATOM     19  C   LIG    1       39.030  21.290 189.983  0.00  0.00    +0.046 A 
ATOM     20  C   LIG    1       38.293  20.426 189.181  0.00  0.00    +0.009 A 
ATOM     21  C   LIG    1       36.945  20.166 189.465  0.00  0.00    -0.029 A 
ATOM     22  C   LIG    1       36.347  20.810 190.551  0.00  0.00    +0.009 A 
ATOM     23  C   LIG    1       37.079  21.675 191.359  0.00  0.00    +0.046 A 
BRANCH  18  25
ATOM     24  C   LIG    1       40.452  22.345 192.469  0.00  0.00    +0.277 C 
ATOM     25  O   LIG    1       39.207  22.733 191.843  0.00  0.00    -0.495 OA
ENDBRANCH  18  25
ENDBRANCH  17  21
BRANCH  17  26
ATOM     26  N   LIG    1       35.115  19.951 187.831  0.00  0.00    -0.294 NA
ATOM     27  C   LIG    1       34.022  19.129 187.281  0.00  0.00    +0.085 C 
ATOM     28  C   LIG    1       33.916  19.604 185.828  0.00  0.00    +0.017 C 
ATOM     29  C   LIG    1       34.437  21.035 185.908  0.00  0.00    +0.017 C 
ATOM     30  C   LIG    1       35.655  20.852 186.806  0.00  0.00    +0.085 C 
ENDBRANCH  17  26
ENDBRANCH   1  17
TORSDOF 8
