REMARK VINA RESULT:      -8.0      1.331      2.086
REMARK  Name = ZINC000006086011
REMARK                            x       y       z     vdW  Elec       q    Type
REMARK                         _______ _______ _______ _____ _____    ______ ____
ROOT
ATOM      1  N   LIG    1       33.746  20.013 186.355  0.00  0.00    -0.286 NA
ATOM      2  C   LIG    1       33.344  20.907 185.247  0.00  0.00    +0.106 C 
ENDROOT
BRANCH   1   3
ATOM      3  C   LIG    1       35.222  20.108 186.690  0.00  0.00    +0.140 C 
ATOM      4  C   LIG    1       36.060  19.272 185.693  0.00  0.00    +0.034 C 
BRANCH   3   7
ATOM      5  N   LIG    1       36.290  18.553 188.242  0.00  0.00    -0.281 N 
ATOM      6  H   LIG    1       36.686  18.254 187.335  0.00  0.00    +0.155 HD
ATOM      7  C   LIG    1       35.447  19.627 188.139  0.00  0.00    +0.234 C 
ATOM      8  O   LIG    1       34.970  20.157 189.125  0.00  0.00    -0.274 OA
BRANCH   5  10
ATOM      9  C   LIG    1       38.002  18.295 189.901  0.00  0.00    +0.141 A 
ATOM     10  C   LIG    1       36.782  17.847 189.372  0.00  0.00    +0.076 A 
ATOM     11  C   LIG    1       36.129  16.758 189.950  0.00  0.00    +0.027 A 
ATOM     12  C   LIG    1       36.691  16.129 191.059  0.00  0.00    +0.002 A 
ATOM     13  C   LIG    1       37.901  16.579 191.588  0.00  0.00    +0.004 A 
ATOM     14  C   LIG    1       38.561  17.661 191.010  0.00  0.00    +0.047 A 
BRANCH   9  16
ATOM     15  C   LIG    1       38.625  20.736 189.822  0.00  0.00    +0.277 C 
ATOM     16  O   LIG    1       38.618  19.387 189.293  0.00  0.00    -0.493 OA
ENDBRANCH   9  16
ENDBRANCH   5  10
ENDBRANCH   3   7
ENDBRANCH   1   3
BRANCH   1  17
ATOM     17  C   LIG    1       33.260  18.598 186.131  0.00  0.00    +0.181 C 
BRANCH  17  18
ATOM     18  C   LIG    1       31.747  18.531 186.319  0.00  0.00    +0.231 C 
ATOM     19  N   LIG    1       31.087  17.531 185.647  0.00  0.00    -0.284 N 
ATOM     20  H   LIG    1       31.681  16.891 185.099  0.00  0.00    +0.155 HD
ATOM     21  O   LIG    1       31.140  19.334 187.002  0.00  0.00    -0.274 OA
BRANCH  19  22
ATOM     22  C   LIG    1       29.691  17.311 185.580  0.00  0.00    +0.041 A 
ATOM     23  C   LIG    1       29.098  17.121 184.293  0.00  0.00    +0.003 A 
ATOM     24  C   LIG    1       29.823  17.226 183.073  0.00  0.00    +0.010 A 
ATOM     25  C   LIG    1       29.209  16.997 181.865  0.00  0.00    +0.001 A 
ATOM     26  C   LIG    1       27.841  16.667 181.814  0.00  0.00    +0.001 A 
ATOM     27  C   LIG    1       27.109  16.578 182.974  0.00  0.00    +0.008 A 
ATOM     28  C   LIG    1       27.715  16.810 184.234  0.00  0.00    -0.016 A 
ATOM     29  C   LIG    1       26.963  16.737 185.435  0.00  0.00    +0.008 A 
ATOM     30  C   LIG    1       27.561  16.948 186.656  0.00  0.00    +0.002 A 
ATOM     31  C   LIG    1       28.937  17.232 186.736  0.00  0.00    +0.024 A 
ENDBRANCH  19  22
ENDBRANCH  17  18
ENDBRANCH   1  17
TORSDOF 7
