REMARK VINA RESULT:      -7.9      4.275      6.633
REMARK  Name = ZINC000006084415
REMARK                            x       y       z     vdW  Elec       q    Type
REMARK                         _______ _______ _______ _____ _____    ______ ____
ROOT
ATOM      1  O   LIG    1       21.831  45.737 185.020  0.00  0.00    -0.451 OA
ENDROOT
BRANCH   1   2
ATOM      2  C   LIG    1       21.620  46.737 185.912  0.00  0.00    +0.356 C 
ATOM      3  O   LIG    1       21.800  46.488 187.096  0.00  0.00    -0.243 OA
BRANCH   2   7
ATOM      4  C   LIG    1       20.233  49.828 184.427  0.00  0.00    +0.041 A 
ATOM      5  C   LIG    1       20.045  48.473 184.786  0.00  0.00    -0.008 A 
ATOM      6  C   LIG    1       18.783  47.658 184.566  0.00  0.00    +0.047 C 
ATOM      7  C   LIG    1       21.203  48.015 185.367  0.00  0.00    +0.128 A 
ATOM      8  N   LIG    1       22.083  49.065 185.366  0.00  0.00    -0.352 N 
ATOM      9  H   LIG    1       23.051  49.009 185.736  0.00  0.00    +0.166 HD
ATOM     10  C   LIG    1       21.526  50.162 184.809  0.00  0.00    +0.024 A 
ATOM     11  C   LIG    1       22.350  51.431 184.712  0.00  0.00    +0.064 C 
BRANCH   4  13
ATOM     12  C   LIG    1       19.310  51.032 182.306  0.00  0.00    +0.091 C 
ATOM     13  C   LIG    1       19.243  50.689 183.773  0.00  0.00    +0.162 C 
ATOM     14  O   LIG    1       18.309  51.175 184.377  0.00  0.00    -0.292 OA
ENDBRANCH   4  13
ENDBRANCH   2   7
ENDBRANCH   1   2
BRANCH   1  15
ATOM     15  C   LIG    1       23.191  45.229 184.770  0.00  0.00    +0.328 C 
BRANCH  15  16
ATOM     16  C   LIG    1       23.081  43.729 184.494  0.00  0.00    +0.256 C 
ATOM     17  N   LIG    1       23.087  42.777 185.465  0.00  0.00    -0.266 N 
ATOM     18  H   LIG    1       22.855  41.840 185.115  0.00  0.00    +0.156 HD
ATOM     19  O   LIG    1       23.001  43.282 183.367  0.00  0.00    -0.272 OA
BRANCH  17  20
ATOM     20  C   LIG    1       23.328  42.913 186.843  0.00  0.00    +0.144 A 
ATOM     21  C   LIG    1       24.588  42.557 187.366  0.00  0.00    +0.082 A 
ATOM     22 CL   LIG    1       25.845  41.935 186.345  0.00  0.00    -0.080 Cl
ATOM     23  C   LIG    1       24.818  42.714 188.723  0.00  0.00    +0.045 A 
ATOM     24  C   LIG    1       23.788  43.228 189.506  0.00  0.00    +0.063 A 
ATOM     25 CL   LIG    1       24.055  43.432 191.207  0.00  0.00    -0.082 Cl
ATOM     26  C   LIG    1       22.562  43.574 188.913  0.00  0.00    +0.059 A 
ATOM     27  C   LIG    1       21.420  44.142 189.729  0.00  0.00    +0.067 C 
ATOM     28  N   LIG    1       22.351  43.415 187.600  0.00  0.00    -0.234 NA
ENDBRANCH  17  20
ENDBRANCH  15  16
ENDBRANCH   1  15
TORSDOF 6
