REMARK VINA RESULT:      -7.5     22.556     24.657
REMARK  Name = ZINC000006084415
REMARK                            x       y       z     vdW  Elec       q    Type
REMARK                         _______ _______ _______ _____ _____    ______ ____
ROOT
ATOM      1  O   LIG    1       23.269  41.865 211.857  0.00  0.00    -0.451 OA
ENDROOT
BRANCH   1   2
ATOM      2  C   LIG    1       24.197  42.849 211.961  0.00  0.00    +0.356 C 
ATOM      3  O   LIG    1       25.123  42.674 212.742  0.00  0.00    -0.243 OA
BRANCH   2   7
ATOM      4  C   LIG    1       23.911  45.661 209.575  0.00  0.00    +0.041 A 
ATOM      5  C   LIG    1       24.390  44.360 209.853  0.00  0.00    -0.008 A 
ATOM      6  C   LIG    1       25.201  43.487 208.912  0.00  0.00    +0.047 C 
ATOM      7  C   LIG    1       24.000  44.018 211.125  0.00  0.00    +0.128 A 
ATOM      8  N   LIG    1       23.295  45.085 211.618  0.00  0.00    -0.352 N 
ATOM      9  H   LIG    1       22.884  45.117 212.571  0.00  0.00    +0.166 HD
ATOM     10  C   LIG    1       23.228  46.081 210.709  0.00  0.00    +0.024 A 
ATOM     11  C   LIG    1       22.490  47.355 211.073  0.00  0.00    +0.064 C 
BRANCH   4  13
ATOM     12  C   LIG    1       25.417  47.088 207.995  0.00  0.00    +0.091 C 
ATOM     13  C   LIG    1       24.114  46.402 208.327  0.00  0.00    +0.162 C 
ATOM     14  O   LIG    1       23.245  46.507 207.487  0.00  0.00    -0.292 OA
ENDBRANCH   4  13
ENDBRANCH   2   7
ENDBRANCH   1   2
BRANCH   1  15
ATOM     15  C   LIG    1       23.224  40.769 212.841  0.00  0.00    +0.328 C 
BRANCH  15  16
ATOM     16  C   LIG    1       23.710  39.499 212.141  0.00  0.00    +0.256 C 
ATOM     17  N   LIG    1       23.015  38.857 211.166  0.00  0.00    -0.266 N 
ATOM     18  H   LIG    1       23.554  38.114 210.706  0.00  0.00    +0.156 HD
ATOM     19  O   LIG    1       24.761  38.963 212.432  0.00  0.00    -0.272 OA
BRANCH  17  20
ATOM     20  C   LIG    1       21.711  39.094 210.700  0.00  0.00    +0.144 A 
ATOM     21  C   LIG    1       21.503  40.014 209.651  0.00  0.00    +0.082 A 
ATOM     22 CL   LIG    1       22.827  40.876 208.933  0.00  0.00    -0.080 Cl
ATOM     23  C   LIG    1       20.214  40.224 209.189  0.00  0.00    +0.045 A 
ATOM     24  C   LIG    1       19.181  39.503 209.782  0.00  0.00    +0.063 A 
ATOM     25 CL   LIG    1       17.560  39.750 209.219  0.00  0.00    -0.082 Cl
ATOM     26  C   LIG    1       19.465  38.593 210.815  0.00  0.00    +0.059 A 
ATOM     27  C   LIG    1       18.371  37.785 211.480  0.00  0.00    +0.067 C 
ATOM     28  N   LIG    1       20.715  38.401 211.254  0.00  0.00    -0.234 NA
ENDBRANCH  17  20
ENDBRANCH  15  16
ENDBRANCH   1  15
TORSDOF 6
