REMARK VINA RESULT:      -6.3     26.361     28.938
REMARK  Name = ZINC000006082796
REMARK                            x       y       z     vdW  Elec       q    Type
REMARK                         _______ _______ _______ _____ _____    ______ ____
ROOT
ATOM      1  N   LIG    1       25.891  48.240 210.661  0.00  0.00    -0.306 N 
ENDROOT
BRANCH   1   2
ATOM      2  C   LIG    1       27.219  48.459 210.993  0.00  0.00    +0.133 A 
ATOM      3  C   LIG    1       28.145  47.407 211.197  0.00  0.00    +0.051 A 
ATOM      4  C   LIG    1       28.046  45.986 211.087  0.00  0.00    -0.025 A 
ATOM      5  C   LIG    1       26.804  45.226 210.654  0.00  0.00    +0.037 C 
ATOM      6  C   LIG    1       27.204  43.781 210.303  0.00  0.00    +0.005 C 
ATOM      7  C   LIG    1       28.104  43.165 211.387  0.00  0.00    +0.005 C 
ATOM      8  C   LIG    1       29.472  43.867 211.424  0.00  0.00    +0.043 C 
ATOM      9  C   LIG    1       29.209  45.358 211.429  0.00  0.00    -0.004 A 
ATOM     10  S   LIG    1       30.469  46.467 211.859  0.00  0.00    -0.073 S 
ATOM     11  C   LIG    1       29.414  47.808 211.582  0.00  0.00    +0.114 A 
ATOM     12  N   LIG    1       29.776  49.107 211.710  0.00  0.00    -0.228 NA
ATOM     13  C   LIG    1       28.856  50.007 211.462  0.00  0.00    +0.224 A 
ATOM     14  N   LIG    1       27.583  49.722 211.105  0.00  0.00    -0.220 NA
ENDBRANCH   1   2
BRANCH   1  16
ATOM     15  C   LIG    1       24.757  47.305 212.549  0.00  0.00    +0.024 C 
ATOM     16  C   LIG    1       24.927  48.587 211.731  0.00  0.00    +0.104 C 
ENDBRANCH   1  16
BRANCH   1  17
ATOM     17  C   LIG    1       25.537  48.877 209.339  0.00  0.00    +0.202 C 
BRANCH  17  18
ATOM     18  C   LIG    1       25.142  47.819 208.302  0.00  0.00    +0.231 C 
ATOM     19  N   LIG    1       24.228  46.922 208.665  0.00  0.00    -0.309 N 
ATOM     20  H   LIG    1       23.769  47.092 209.548  0.00  0.00    +0.149 HD
ATOM     21  O   LIG    1       25.628  47.789 207.176  0.00  0.00    -0.274 OA
BRANCH  19  22
ATOM     22  C   LIG    1       23.711  45.897 207.782  0.00  0.00    +0.146 C 
BRANCH  22  23
ATOM     23  C   LIG    1       23.691  44.662 208.651  0.00  0.00    +0.007 A 
ATOM     24  S   LIG    1       23.060  44.720 210.263  0.00  0.00    -0.100 S 
ATOM     25  C   LIG    1       23.400  43.041 210.490  0.00  0.00    +0.045 A 
ATOM     26  C   LIG    1       23.970  42.485 209.382  0.00  0.00    +0.008 A 
ATOM     27  C   LIG    1       24.138  43.409 208.336  0.00  0.00    +0.013 A 
ENDBRANCH  22  23
ENDBRANCH  19  22
ENDBRANCH  17  18
ENDBRANCH   1  17
TORSDOF 6
