REMARK VINA RESULT:      -8.5      1.809      2.489
REMARK  Name = ZINC000000607845
REMARK                            x       y       z     vdW  Elec       q    Type
REMARK                         _______ _______ _______ _____ _____    ______ ____
ROOT
ATOM      1  C   LIG    1       27.327  16.967 184.351  0.00  0.00    -0.021 A 
ATOM      2  C   LIG    1       28.573  16.995 183.681  0.00  0.00    +0.003 A 
ATOM      3  C   LIG    1       29.851  17.467 184.027  0.00  0.00    +0.014 A 
ATOM      4  C   LIG    1       30.903  17.321 183.133  0.00  0.00    -0.045 A 
ATOM      5  C   LIG    1       30.687  16.714 181.870  0.00  0.00    +0.006 A 
ATOM      6  C   LIG    1       29.431  16.256 181.511  0.00  0.00    +0.026 A 
ATOM      7  C   LIG    1       28.391  16.408 182.436  0.00  0.00    +0.047 A 
ATOM      8  N   LIG    1       27.061  16.044 182.349  0.00  0.00    -0.360 N 
ATOM      9  H   LIG    1       26.623  15.587 181.533  0.00  0.00    +0.165 HD
ATOM     10  C   LIG    1       26.422  16.386 183.519  0.00  0.00    +0.087 A 
ENDROOT
BRANCH   1  11
ATOM     11  C   LIG    1       27.048  17.482 185.751  0.00  0.00    +0.056 C 
BRANCH  11  14
ATOM     12  C   LIG    1       28.677  17.885 188.072  0.00  0.00    +0.105 C 
ATOM     13  N   LIG    1       27.839  16.672 188.037  0.00  0.00    -0.302 NA
ATOM     14  C   LIG    1       27.227  16.291 186.731  0.00  0.00    +0.061 C 
ATOM     15  C   LIG    1       25.838  15.739 187.118  0.00  0.00    +0.020 C 
ATOM     16  C   LIG    1       25.968  15.486 188.619  0.00  0.00    +0.017 C 
ATOM     17  C   LIG    1       26.799  16.687 189.058  0.00  0.00    +0.084 C 
ENDBRANCH  11  14
ENDBRANCH   1  11
BRANCH   4  18
ATOM     18  C   LIG    1       32.291  17.790 183.516  0.00  0.00    +0.058 C 
BRANCH  18  19
ATOM     19  C   LIG    1       32.099  19.163 184.181  0.00  0.00    +0.176 C 
BRANCH  19  20
ATOM     20  S   LIG    1       32.091  19.162 185.958  0.00  0.00    -0.003 S 
ATOM     21  O   LIG    1       31.820  17.837 186.405  0.00  0.00    -0.169 OA
ATOM     22  O   LIG    1       31.210  20.188 186.403  0.00  0.00    -0.169 OA
BRANCH  20  23
ATOM     23  C   LIG    1       33.783  19.600 186.393  0.00  0.00    +0.088 A 
ATOM     24  C   LIG    1       34.508  18.822 187.300  0.00  0.00    +0.027 A 
ATOM     25  C   LIG    1       35.815  19.159 187.638  0.00  0.00    +0.002 A 
ATOM     26  C   LIG    1       36.410  20.285 187.076  0.00  0.00    +0.000 A 
ATOM     27  C   LIG    1       35.695  21.074 186.183  0.00  0.00    +0.002 A 
ATOM     28  C   LIG    1       34.388  20.735 185.846  0.00  0.00    +0.027 A 
ENDBRANCH  20  23
ENDBRANCH  19  20
ENDBRANCH  18  19
ENDBRANCH   4  18
TORSDOF 6
