REMARK VINA RESULT:      -6.8     29.997     32.266
REMARK  Name = ZINC000006087402
REMARK                            x       y       z     vdW  Elec       q    Type
REMARK                         _______ _______ _______ _____ _____    ______ ____
ROOT
ATOM      1  C   LIG    1       38.117  20.867 192.571  0.00  0.00    +0.214 C 
ENDROOT
BRANCH   1   7
ATOM      2  C   LIG    1       35.069  18.799 188.068  0.00  0.00    +0.010 C 
ATOM      3  C   LIG    1       36.413  18.750 188.835  0.00  0.00    +0.018 C 
ATOM      4  C   LIG    1       37.026  20.175 189.047  0.00  0.00    +0.115 C 
ATOM      5  C   LIG    1       38.072  20.163 190.168  0.00  0.00    +0.247 C 
ATOM      6  O   LIG    1       39.176  19.649 190.225  0.00  0.00    -0.273 OA
ATOM      7  N   LIG    1       37.565  20.869 191.213  0.00  0.00    -0.215 N 
ATOM      8  C   LIG    1       36.328  21.358 190.903  0.00  0.00    +0.310 C 
ATOM      9  O   LIG    1       35.594  21.954 191.671  0.00  0.00    -0.252 OA
ATOM     10  N   LIG    1       36.029  21.068 189.622  0.00  0.00    -0.285 N 
ATOM     11  H   LIG    1       35.046  21.085 189.329  0.00  0.00    +0.151 HD
ATOM     12  C   LIG    1       37.554  20.821 187.739  0.00  0.00    +0.035 C 
ATOM     13  C   LIG    1       38.553  19.871 187.052  0.00  0.00    +0.003 C 
ATOM     14  C   LIG    1       37.942  18.489 186.787  0.00  0.00    +0.000 C 
ATOM     15  C   LIG    1       37.430  17.859 188.091  0.00  0.00    +0.006 C 
ENDBRANCH   1   7
BRANCH   1  16
ATOM     16  C   LIG    1       39.135  22.005 192.674  0.00  0.00    +0.238 C 
ATOM     17  N   LIG    1       40.106  21.953 193.663  0.00  0.00    -0.267 N 
ATOM     18  O   LIG    1       39.121  22.968 191.917  0.00  0.00    -0.274 OA
BRANCH  17  19
ATOM     19  C   LIG    1       40.095  20.972 194.689  0.00  0.00    +0.010 C 
ATOM     20  C   LIG    1       41.283  20.025 194.707  0.00  0.00    +0.051 C 
ATOM     21  C   LIG    1       40.892  18.791 195.548  0.00  0.00    +0.006 C 
ATOM     22  C   LIG    1       40.383  19.298 196.913  0.00  0.00    +0.004 C 
ATOM     23  C   LIG    1       38.989  19.928 196.701  0.00  0.00    +0.029 C 
ATOM     24  C   LIG    1       39.089  20.950 195.584  0.00  0.00    -0.008 C 
ENDBRANCH  17  19
BRANCH  17  25
ATOM     25  C   LIG    1       41.132  23.014 193.723  0.00  0.00    +0.187 C 
BRANCH  25  26
ATOM     26  C   LIG    1       40.738  23.896 194.890  0.00  0.00    +0.122 A 
ATOM     27  O   LIG    1       39.539  24.543 194.896  0.00  0.00    -0.466 OA
ATOM     28  C   LIG    1       39.472  25.257 196.047  0.00  0.00    +0.195 A 
ATOM     29  C   LIG    1       40.603  25.070 196.762  0.00  0.00    +0.041 A 
ATOM     30  C   LIG    1       41.413  24.202 196.023  0.00  0.00    +0.046 A 
ENDBRANCH  25  26
ENDBRANCH  17  25
ENDBRANCH   1  16
TORSDOF 5
