REMARK VINA RESULT:      -8.1     24.613     26.682
REMARK  Name = ZINC000000603759
REMARK                            x       y       z     vdW  Elec       q    Type
REMARK                         _______ _______ _______ _____ _____    ______ ____
ROOT
ATOM      1  C   LIG    1       22.083  41.271 209.690  0.00  0.00    +0.139 A 
ATOM      2  C   LIG    1       22.516  41.767 210.951  0.00  0.00    +0.050 A 
ATOM      3  C   LIG    1       22.014  41.765 212.265  0.00  0.00    +0.015 A 
ATOM      4  C   LIG    1       22.775  42.383 213.238  0.00  0.00    +0.020 A 
ATOM      5  C   LIG    1       24.010  42.991 212.905  0.00  0.00    +0.113 A 
ATOM      6  N   LIG    1       24.490  42.996 211.676  0.00  0.00    -0.236 NA
ATOM      7  C   LIG    1       23.730  42.377 210.736  0.00  0.00    +0.159 A 
ATOM      8  N   LIG    1       23.989  42.231 209.404  0.00  0.00    -0.241 N 
ATOM      9  N   LIG    1       22.990  41.565 208.762  0.00  0.00    -0.165 NA
ENDROOT
BRANCH   1  14
ATOM     10  C   LIG    1       19.302  38.942 210.043  0.00  0.00    +0.128 A 
ATOM     11  C   LIG    1       18.494  39.212 208.931  0.00  0.00    +0.040 A 
ATOM     12  C   LIG    1       18.954  40.207 208.083  0.00  0.00    +0.125 A 
ATOM     13  N   LIG    1       20.086  40.847 208.332  0.00  0.00    -0.234 NA
ATOM     14  C   LIG    1       20.826  40.544 209.433  0.00  0.00    +0.183 A 
ATOM     15  N   LIG    1       20.420  39.585 210.284  0.00  0.00    -0.211 NA
BRANCH  11  16
ATOM     16  C   LIG    1       17.248  38.507 208.670  0.00  0.00    -0.010 A 
ATOM     17  C   LIG    1       17.233  37.207 208.165  0.00  0.00    +0.028 A 
ATOM     18  C   LIG    1       16.026  36.561 207.931  0.00  0.00    +0.111 A 
ATOM     19  N   LIG    1       14.858  37.153 208.178  0.00  0.00    -0.263 NA
ATOM     20  C   LIG    1       14.837  38.394 208.662  0.00  0.00    +0.111 A 
ATOM     21  C   LIG    1       16.007  39.097 208.920  0.00  0.00    +0.028 A 
ENDBRANCH  11  16
BRANCH  10  22
ATOM     22  N   LIG    1       19.017  37.988 210.962  0.00  0.00    -0.343 N 
ATOM     23  H   LIG    1       18.036  37.697 211.047  0.00  0.00    +0.144 HD
ATOM     24  H   LIG    1       19.739  37.257 211.033  0.00  0.00    +0.144 HD
ENDBRANCH  10  22
ENDBRANCH   1  14
BRANCH   8  25
ATOM     25  C   LIG    1       25.190  42.710 208.724  0.00  0.00    +0.183 C 
BRANCH  25  26
ATOM     26  C   LIG    1       25.027  44.211 208.523  0.00  0.00    +0.009 A 
ATOM     27  C   LIG    1       25.892  45.120 209.129  0.00  0.00    +0.128 A 
ATOM     28  F   LIG    1       26.895  44.672 209.925  0.00  0.00    -0.205 F 
ATOM     29  C   LIG    1       25.767  46.495 208.967  0.00  0.00    +0.039 A 
ATOM     30  C   LIG    1       24.736  46.986 208.172  0.00  0.00    +0.003 A 
ATOM     31  C   LIG    1       23.852  46.100 207.558  0.00  0.00    +0.000 A 
ATOM     32  C   LIG    1       23.994  44.723 207.732  0.00  0.00    +0.008 A 
ENDBRANCH  25  26
ENDBRANCH   8  25
TORSDOF 5
