REMARK VINA RESULT:      -7.0     29.656     31.688
REMARK  Name = ZINC000006087397
REMARK                            x       y       z     vdW  Elec       q    Type
REMARK                         _______ _______ _______ _____ _____    ______ ____
ROOT
ATOM      1  C   LIG    1       38.346  22.300 192.853  0.00  0.00    +0.214 C 
ENDROOT
BRANCH   1   7
ATOM      2  C   LIG    1       38.940  17.995 190.723  0.00  0.00    +0.010 C 
ATOM      3  C   LIG    1       37.695  18.451 189.929  0.00  0.00    +0.018 C 
ATOM      4  C   LIG    1       37.489  19.999 190.005  0.00  0.00    +0.115 C 
ATOM      5  C   LIG    1       37.334  20.486 191.442  0.00  0.00    +0.247 C 
ATOM      6  O   LIG    1       36.549  20.132 192.303  0.00  0.00    -0.273 OA
ATOM      7  N   LIG    1       38.269  21.451 191.658  0.00  0.00    -0.215 N 
ATOM      8  C   LIG    1       39.048  21.616 190.542  0.00  0.00    +0.310 C 
ATOM      9  O   LIG    1       39.955  22.418 190.422  0.00  0.00    -0.252 OA
ATOM     10  N   LIG    1       38.671  20.742 189.587  0.00  0.00    -0.285 N 
ATOM     11  H   LIG    1       38.958  20.894 188.615  0.00  0.00    +0.151 HD
ATOM     12  C   LIG    1       36.261  20.445 189.170  0.00  0.00    +0.035 C 
ATOM     13  C   LIG    1       36.431  19.979 187.711  0.00  0.00    +0.003 C 
ATOM     14  C   LIG    1       36.629  18.460 187.627  0.00  0.00    +0.000 C 
ATOM     15  C   LIG    1       37.842  18.018 188.457  0.00  0.00    +0.006 C 
ENDBRANCH   1   7
BRANCH   1  16
ATOM     16  C   LIG    1       39.456  21.731 193.742  0.00  0.00    +0.238 C 
ATOM     17  N   LIG    1       40.586  22.477 194.104  0.00  0.00    -0.267 N 
ATOM     18  O   LIG    1       39.372  20.579 194.129  0.00  0.00    -0.274 OA
BRANCH  17  19
ATOM     19  C   LIG    1       41.592  21.969 194.988  0.00  0.00    +0.010 C 
ATOM     20  C   LIG    1       41.199  21.833 196.452  0.00  0.00    +0.051 C 
ATOM     21  C   LIG    1       42.495  21.834 197.291  0.00  0.00    +0.006 C 
ATOM     22  C   LIG    1       43.397  20.712 196.740  0.00  0.00    +0.004 C 
ATOM     23  C   LIG    1       43.958  21.169 195.376  0.00  0.00    +0.029 C 
ATOM     24  C   LIG    1       42.810  21.650 194.506  0.00  0.00    -0.008 C 
ENDBRANCH  17  19
BRANCH  17  25
ATOM     25  C   LIG    1       40.784  23.857 193.615  0.00  0.00    +0.187 C 
BRANCH  25  26
ATOM     26  C   LIG    1       40.564  24.752 194.820  0.00  0.00    +0.122 A 
ATOM     27  O   LIG    1       39.365  24.773 195.464  0.00  0.00    -0.466 OA
ATOM     28  C   LIG    1       39.471  25.652 196.491  0.00  0.00    +0.195 A 
ATOM     29  C   LIG    1       40.714  26.182 196.506  0.00  0.00    +0.041 A 
ATOM     30  C   LIG    1       41.412  25.606 195.439  0.00  0.00    +0.046 A 
ENDBRANCH  25  26
ENDBRANCH  17  25
ENDBRANCH   1  16
TORSDOF 5
