REMARK VINA RESULT:      -6.8     29.651     32.774
REMARK  Name = ZINC000006083858
REMARK                            x       y       z     vdW  Elec       q    Type
REMARK                         _______ _______ _______ _____ _____    ______ ____
ROOT
ATOM      1  C   LIG    1       28.555  21.707 206.882  0.00  0.00    +0.257 A 
ATOM      2  C   LIG    1       29.286  22.213 205.729  0.00  0.00    +0.185 A 
ATOM      3  N   LIG    1       29.978  21.427 204.942  0.00  0.00    -0.225 NA
ATOM      4  C   LIG    1       29.957  20.089 205.258  0.00  0.00    +0.092 A 
ATOM      5  C   LIG    1       30.671  19.178 204.454  0.00  0.00    +0.030 A 
ATOM      6  C   LIG    1       30.670  17.828 204.745  0.00  0.00    +0.002 A 
ATOM      7  C   LIG    1       29.950  17.343 205.851  0.00  0.00    +0.002 A 
ATOM      8  C   LIG    1       29.241  18.214 206.653  0.00  0.00    +0.030 A 
ATOM      9  C   LIG    1       29.234  19.595 206.381  0.00  0.00    +0.093 A 
ATOM     10  N   LIG    1       28.527  20.443 207.214  0.00  0.00    -0.208 NA
ENDROOT
BRANCH   2  11
ATOM     11  N   LIG    1       29.315  23.585 205.444  0.00  0.00    -0.311 N 
ATOM     12  C   LIG    1       30.563  24.216 205.929  0.00  0.00    +0.131 C 
BRANCH  11  13
ATOM     13  C   LIG    1       28.787  24.027 204.115  0.00  0.00    +0.075 C 
ATOM     14  C   LIG    1       29.251  25.471 203.765  0.00  0.00    +0.022 C 
ATOM     15  C   LIG    1       28.707  26.486 204.793  0.00  0.00    +0.002 C 
ATOM     16  C   LIG    1       27.175  26.456 204.843  0.00  0.00    +0.000 C 
ATOM     17  C   LIG    1       26.697  25.036 205.165  0.00  0.00    +0.002 C 
ATOM     18  C   LIG    1       27.230  24.028 204.127  0.00  0.00    +0.022 C 
ENDBRANCH  11  13
ENDBRANCH   2  11
BRANCH   1  19
ATOM     19  O   LIG    1       27.866  22.594 207.683  0.00  0.00    -0.465 OA
BRANCH  19  20
ATOM     20  C   LIG    1       27.228  22.251 208.961  0.00  0.00    +0.326 C 
BRANCH  20  23
ATOM     21  N   LIG    1       26.960  24.470 209.921  0.00  0.00    -0.310 N 
ATOM     22  H   LIG    1       26.214  24.534 209.242  0.00  0.00    +0.149 HD
ATOM     23  C   LIG    1       27.630  23.318 209.967  0.00  0.00    +0.251 C 
ATOM     24  O   LIG    1       28.511  23.127 210.799  0.00  0.00    -0.272 OA
BRANCH  21  25
ATOM     25  C   LIG    1       27.149  25.599 210.811  0.00  0.00    +0.073 C 
ATOM     26  C   LIG    1       25.841  25.812 211.572  0.00  0.00    +0.028 C 
BRANCH  25  28
ATOM     27  C   LIG    1       29.023  27.274 210.430  0.00  0.00    +0.009 C 
ATOM     28  C   LIG    1       27.604  26.848 210.016  0.00  0.00    +0.003 C 
ATOM     29  C   LIG    1       27.569  26.683 208.483  0.00  0.00    +0.009 C 
ENDBRANCH  25  28
ENDBRANCH  21  25
ENDBRANCH  20  23
ENDBRANCH  19  20
ENDBRANCH   1  19
TORSDOF 7
