REMARK VINA RESULT:      -6.8      5.107      8.741
REMARK  Name = ZINC000006084756
REMARK                            x       y       z     vdW  Elec       q    Type
REMARK                         _______ _______ _______ _____ _____    ______ ____
ROOT
ATOM      1  C   LIG    1       25.642  43.843 210.948  0.00  0.00    +0.125 C 
ENDROOT
BRANCH   1   2
ATOM      2  N   LIG    1       26.415  42.586 211.077  0.00  0.00    -0.336 N 
ATOM      3  H   LIG    1       27.387  42.657 210.739  0.00  0.00    +0.147 HD
BRANCH   2   4
ATOM      4  C   LIG    1       26.267  41.773 212.200  0.00  0.00    +0.079 C 
ATOM      5  S   LIG    1       27.618  41.336 213.103  0.00  0.00    -0.035 S 
BRANCH   4   6
ATOM      6  C   LIG    1       24.895  41.360 212.514  0.00  0.00    +0.003 A 
ATOM      7  C   LIG    1       24.411  40.125 212.057  0.00  0.00    +0.012 A 
ATOM      8  C   LIG    1       23.114  39.717 212.342  0.00  0.00    +0.024 A 
ATOM      9  C   LIG    1       22.277  40.544 213.093  0.00  0.00    +0.033 A 
ATOM     10  C   LIG    1       22.735  41.785 213.547  0.00  0.00    +0.024 A 
ATOM     11  C   LIG    1       24.034  42.185 213.260  0.00  0.00    +0.012 A 
BRANCH   9  12
ATOM     12  N   LIG    1       20.964  40.074 213.334  0.00  0.00    -0.286 N 
ATOM     13  H   LIG    1       20.304  40.144 212.552  0.00  0.00    +0.155 HD
ATOM     14  C   LIG    1       20.467  39.481 214.466  0.00  0.00    +0.214 C 
ATOM     15  O   LIG    1       21.165  39.262 215.430  0.00  0.00    -0.276 OA
ATOM     16  C   LIG    1       19.013  39.099 214.424  0.00  0.00    +0.109 C 
ENDBRANCH   9  12
ENDBRANCH   4   6
ENDBRANCH   2   4
ENDBRANCH   1   2
BRANCH   1  17
ATOM     17  C   LIG    1       24.937  43.835 209.557  0.00  0.00    +0.104 C 
BRANCH  17  21
ATOM     18  C   LIG    1       21.156  41.743 209.722  0.00  0.00    +0.120 A 
ATOM     19  C   LIG    1       22.236  41.127 209.102  0.00  0.00    +0.046 A 
ATOM     20  C   LIG    1       23.465  41.776 209.055  0.00  0.00    +0.009 A 
ATOM     21  C   LIG    1       23.623  43.047 209.624  0.00  0.00    -0.029 A 
ATOM     22  C   LIG    1       22.531  43.641 210.265  0.00  0.00    +0.009 A 
ATOM     23  C   LIG    1       21.298  42.998 210.314  0.00  0.00    +0.046 A 
BRANCH  18  25
ATOM     24  C   LIG    1       19.143  40.832 208.550  0.00  0.00    +0.277 C 
ATOM     25  O   LIG    1       19.959  41.064 209.722  0.00  0.00    -0.495 OA
ENDBRANCH  18  25
ENDBRANCH  17  21
BRANCH  17  26
ATOM     26  N   LIG    1       24.653  45.208 209.045  0.00  0.00    -0.294 NA
ATOM     27  C   LIG    1       24.669  45.312 207.575  0.00  0.00    +0.085 C 
ATOM     28  C   LIG    1       25.473  46.591 207.318  0.00  0.00    +0.017 C 
ATOM     29  C   LIG    1       25.228  47.396 208.589  0.00  0.00    +0.017 C 
ATOM     30  C   LIG    1       25.394  46.319 209.654  0.00  0.00    +0.085 C 
ENDBRANCH  17  26
ENDBRANCH   1  17
TORSDOF 8
