REMARK VINA RESULT:      -6.2      5.215      7.593
REMARK  Name = ZINC000000622877
REMARK                            x       y       z     vdW  Elec       q    Type
REMARK                         _______ _______ _______ _____ _____    ______ ____
ROOT
ATOM      1  O   LIG    1       28.522  24.539 212.724  0.00  0.00    -0.274 OA
ATOM      2  C   LIG    1       27.520  25.198 212.494  0.00  0.00    +0.235 C 
ATOM      3  N   LIG    1       26.318  24.809 213.000  0.00  0.00    -0.219 N 
ATOM      4  H   LIG    1       25.502  25.443 212.973  0.00  0.00    +0.176 HD
ENDROOT
BRANCH   3   5
ATOM      5  N   LIG    1       26.184  23.603 213.839  0.00  0.00    -0.217 N 
ATOM      6  C   LIG    1       26.071  23.661 215.238  0.00  0.00    +0.079 A 
ATOM      7  C   LIG    1       25.778  22.434 215.739  0.00  0.00    +0.078 A 
ATOM      8  S   LIG    1       25.680  21.202 214.522  0.00  0.00    -0.033 S 
ATOM      9  C   LIG    1       26.032  22.357 213.274  0.00  0.00    +0.308 A 
ATOM     10  O   LIG    1       26.154  22.127 212.051  0.00  0.00    -0.258 OA
BRANCH   6  11
ATOM     11  C   LIG    1       26.261  24.901 215.976  0.00  0.00    +0.001 A 
ATOM     12  C   LIG    1       27.539  25.447 216.154  0.00  0.00    +0.010 A 
ATOM     13  C   LIG    1       27.716  26.627 216.868  0.00  0.00    +0.001 A 
ATOM     14  C   LIG    1       26.618  27.283 217.414  0.00  0.00    +0.000 A 
ATOM     15  C   LIG    1       25.342  26.754 217.244  0.00  0.00    +0.001 A 
ATOM     16  C   LIG    1       25.166  25.574 216.531  0.00  0.00    +0.010 A 
ENDBRANCH   6  11
ENDBRANCH   3   5
BRANCH   2  17
ATOM     17  C   LIG    1       27.564  26.462 211.658  0.00  0.00    +0.132 C 
BRANCH  17  18
ATOM     18  C   LIG    1       28.210  26.124 210.321  0.00  0.00    -0.039 A 
ATOM     19  C   LIG    1       29.495  26.576 210.021  0.00  0.00    +0.005 A 
ATOM     20  C   LIG    1       30.088  26.249 208.805  0.00  0.00    +0.015 A 
ATOM     21  C   LIG    1       29.402  25.468 207.879  0.00  0.00    +0.018 A 
ATOM     22 BR   LIG    1       30.212  25.023 206.228  0.00  0.00    -0.050 Br
ATOM     23  C   LIG    1       28.118  25.017 208.173  0.00  0.00    +0.015 A 
ATOM     24  C   LIG    1       27.523  25.345 209.387  0.00  0.00    +0.005 A 
ENDBRANCH  17  18
ENDBRANCH   2  17
TORSDOF 4
