REMARK VINA RESULT:      -7.9      4.419      6.059
REMARK  Name = ZINC000006083105
REMARK                            x       y       z     vdW  Elec       q    Type
REMARK                         _______ _______ _______ _____ _____    ______ ____
ROOT
ATOM      1  C   LIG    1       23.240  43.552 181.692  0.00  0.00    +0.083 C 
ENDROOT
BRANCH   1   2
ATOM      2  C   LIG    1       22.939  44.978 182.106  0.00  0.00    +0.111 A 
ATOM      3  N   LIG    1       23.791  45.944 181.613  0.00  0.00    -0.310 N 
ATOM      4  H   LIG    1       24.611  45.676 181.052  0.00  0.00    +0.170 HD
ATOM      5  C   LIG    1       23.667  47.265 181.917  0.00  0.00    +0.260 A 
ATOM      6  O   LIG    1       24.516  48.003 181.416  0.00  0.00    -0.267 OA
ATOM      7  C   LIG    1       22.583  47.628 182.782  0.00  0.00    +0.075 A 
ATOM      8  C   LIG    1       22.186  48.897 183.274  0.00  0.00    -0.023 A 
ATOM      9  C   LIG    1       22.898  50.203 182.963  0.00  0.00    +0.037 C 
ATOM     10  C   LIG    1       21.957  51.363 183.341  0.00  0.00    +0.005 C 
ATOM     11  C   LIG    1       21.362  51.172 184.749  0.00  0.00    +0.005 C 
ATOM     12  C   LIG    1       20.403  49.968 184.792  0.00  0.00    +0.043 C 
ATOM     13  C   LIG    1       21.102  48.817 184.102  0.00  0.00    -0.004 A 
ATOM     14  S   LIG    1       20.532  47.189 184.278  0.00  0.00    -0.073 S 
ATOM     15  C   LIG    1       21.779  46.612 183.237  0.00  0.00    +0.116 A 
ATOM     16  N   LIG    1       21.971  45.276 182.892  0.00  0.00    -0.227 NA
ENDBRANCH   1   2
BRANCH   1  17
ATOM     17  C   LIG    1       24.744  43.285 181.968  0.00  0.00    +0.104 C 
BRANCH  17  20
ATOM     18  N   LIG    1       24.408  42.591 184.301  0.00  0.00    -0.285 N 
ATOM     19  H   LIG    1       23.913  41.805 183.867  0.00  0.00    +0.155 HD
ATOM     20  C   LIG    1       24.996  43.484 183.448  0.00  0.00    +0.218 C 
ATOM     21  O   LIG    1       25.664  44.408 183.869  0.00  0.00    -0.275 OA
BRANCH  18  25
ATOM     22  C   LIG    1       24.405  42.803 188.481  0.00  0.00    +0.121 A 
ATOM     23  C   LIG    1       23.347  43.349 187.748  0.00  0.00    +0.047 A 
ATOM     24  C   LIG    1       23.360  43.263 186.359  0.00  0.00    +0.027 A 
ATOM     25  C   LIG    1       24.428  42.629 185.717  0.00  0.00    +0.034 A 
ATOM     26  C   LIG    1       25.488  42.090 186.452  0.00  0.00    +0.027 A 
ATOM     27  C   LIG    1       25.472  42.178 187.840  0.00  0.00    +0.047 A 
BRANCH  22  28
ATOM     28  O   LIG    1       24.444  42.857 189.859  0.00  0.00    -0.492 OA
BRANCH  28  30
ATOM     29  C   LIG    1       23.295  43.015 191.906  0.00  0.00    +0.048 C 
ATOM     30  C   LIG    1       23.716  43.803 190.667  0.00  0.00    +0.225 C 
ENDBRANCH  28  30
ENDBRANCH  22  28
ENDBRANCH  18  25
ENDBRANCH  17  20
ENDBRANCH   1  17
TORSDOF 6
