REMARK VINA RESULT:      -6.7     29.428     32.698
REMARK  Name = ZINC000006083858
REMARK                            x       y       z     vdW  Elec       q    Type
REMARK                         _______ _______ _______ _____ _____    ______ ____
ROOT
ATOM      1  C   LIG    1       29.953  18.974 198.256  0.00  0.00    +0.257 A 
ATOM      2  C   LIG    1       28.812  18.070 198.289  0.00  0.00    +0.185 A 
ATOM      3  N   LIG    1       27.647  18.434 198.765  0.00  0.00    -0.225 NA
ATOM      4  C   LIG    1       27.560  19.730 199.216  0.00  0.00    +0.092 A 
ATOM      5  C   LIG    1       26.337  20.200 199.736  0.00  0.00    +0.030 A 
ATOM      6  C   LIG    1       26.217  21.495 200.197  0.00  0.00    +0.002 A 
ATOM      7  C   LIG    1       27.318  22.368 200.150  0.00  0.00    +0.002 A 
ATOM      8  C   LIG    1       28.526  21.934 199.644  0.00  0.00    +0.030 A 
ATOM      9  C   LIG    1       28.675  20.614 199.175  0.00  0.00    +0.093 A 
ATOM     10  N   LIG    1       29.903  20.205 198.689  0.00  0.00    -0.208 NA
ENDROOT
BRANCH   2  11
ATOM     11  N   LIG    1       28.933  16.744 197.849  0.00  0.00    -0.311 N 
ATOM     12  C   LIG    1       29.108  15.808 198.981  0.00  0.00    +0.131 C 
BRANCH  11  13
ATOM     13  C   LIG    1       28.055  16.307 196.718  0.00  0.00    +0.075 C 
ATOM     14  C   LIG    1       28.226  14.791 196.412  0.00  0.00    +0.022 C 
ATOM     15  C   LIG    1       29.672  14.481 195.967  0.00  0.00    +0.002 C 
ATOM     16  C   LIG    1       30.050  15.285 194.718  0.00  0.00    +0.000 C 
ATOM     17  C   LIG    1       29.867  16.781 194.991  0.00  0.00    +0.002 C 
ATOM     18  C   LIG    1       28.419  17.088 195.421  0.00  0.00    +0.022 C 
ENDBRANCH  11  13
ENDBRANCH   2  11
BRANCH   1  19
ATOM     19  O   LIG    1       31.157  18.517 197.762  0.00  0.00    -0.465 OA
BRANCH  19  20
ATOM     20  C   LIG    1       32.178  17.815 198.553  0.00  0.00    +0.326 C 
BRANCH  20  23
ATOM     21  N   LIG    1       33.893  17.191 196.944  0.00  0.00    -0.310 N 
ATOM     22  H   LIG    1       34.204  18.140 197.101  0.00  0.00    +0.149 HD
ATOM     23  C   LIG    1       32.829  16.788 197.640  0.00  0.00    +0.251 C 
ATOM     24  O   LIG    1       32.416  15.636 197.561  0.00  0.00    -0.272 OA
BRANCH  21  25
ATOM     25  C   LIG    1       34.687  16.368 196.054  0.00  0.00    +0.073 C 
ATOM     26  C   LIG    1       36.155  16.561 196.432  0.00  0.00    +0.028 C 
BRANCH  25  28
ATOM     27  C   LIG    1       35.674  17.094 193.827  0.00  0.00    +0.009 C 
ATOM     28  C   LIG    1       34.384  16.717 194.576  0.00  0.00    +0.003 C 
ATOM     29  C   LIG    1       33.665  15.605 193.786  0.00  0.00    +0.009 C 
ENDBRANCH  25  28
ENDBRANCH  21  25
ENDBRANCH  20  23
ENDBRANCH  19  20
ENDBRANCH   1  19
TORSDOF 7
