REMARK VINA RESULT:      -7.6     30.515     32.476
REMARK  Name = ZINC000000538650
REMARK                            x       y       z     vdW  Elec       q    Type
REMARK                         _______ _______ _______ _____ _____    ______ ____
ROOT
ATOM      1  C   LIG    1       36.251  19.172 188.609  0.00  0.00    +0.076 A 
ATOM      2  N   LIG    1       36.424  19.940 189.777  0.00  0.00    -0.213 N 
ATOM      3  N   LIG    1       35.806  21.116 190.099  0.00  0.00    -0.172 NA
ATOM      4  C   LIG    1       36.281  21.430 191.275  0.00  0.00    +0.148 A 
ATOM      5  C   LIG    1       37.209  20.501 191.742  0.00  0.00    +0.087 A 
ATOM      6  C   LIG    1       37.293  19.532 190.770  0.00  0.00    +0.167 A 
ATOM      7  N   LIG    1       38.008  18.346 190.673  0.00  0.00    -0.235 NA
ATOM      8  C   LIG    1       37.860  17.621 189.608  0.00  0.00    +0.115 A 
ATOM      9  C   LIG    1       36.990  18.011 188.552  0.00  0.00    +0.048 A 
ENDROOT
BRANCH   1  12
ATOM     10  C   LIG    1       33.452  19.322 186.087  0.00  0.00    +0.037 A 
ATOM     11  C   LIG    1       34.275  18.857 187.113  0.00  0.00    +0.033 A 
ATOM     12  C   LIG    1       35.342  19.642 187.569  0.00  0.00    +0.002 A 
ATOM     13  C   LIG    1       35.554  20.899 186.981  0.00  0.00    +0.010 A 
ATOM     14  C   LIG    1       34.725  21.360 185.963  0.00  0.00    +0.002 A 
ATOM     15  C   LIG    1       33.673  20.573 185.508  0.00  0.00    +0.023 A 
BRANCH  10  18
ATOM     16  C   LIG    1       30.084  17.520 185.748  0.00  0.00    +0.109 C 
ATOM     17  C   LIG    1       31.160  18.450 186.256  0.00  0.00    +0.216 C 
ATOM     18  N   LIG    1       32.394  18.495 185.615  0.00  0.00    -0.275 N 
ATOM     19  C   LIG    1       32.676  17.643 184.444  0.00  0.00    +0.138 C 
ATOM     20  O   LIG    1       30.949  19.154 187.222  0.00  0.00    -0.276 OA
ENDBRANCH  10  18
ENDBRANCH   1  12
BRANCH   5  21
ATOM     21  C   LIG    1       37.876  20.587 193.021  0.00  0.00    +0.205 C 
ATOM     22  O   LIG    1       37.679  19.680 193.829  0.00  0.00    -0.286 OA
BRANCH  21  23
ATOM     23  C   LIG    1       38.728  21.699 193.418  0.00  0.00    +0.060 A 
ATOM     24  S   LIG    1       39.659  22.574 192.237  0.00  0.00    -0.093 S 
ATOM     25  C   LIG    1       40.330  23.594 193.452  0.00  0.00    +0.046 A 
ATOM     26  C   LIG    1       39.866  23.273 194.698  0.00  0.00    +0.008 A 
ATOM     27  C   LIG    1       38.966  22.202 194.682  0.00  0.00    +0.019 A 
ENDBRANCH  21  23
ENDBRANCH   5  21
TORSDOF 4
