REMARK VINA RESULT:      -6.9      0.000      0.000
REMARK  Name = ZINC000000623134
REMARK                            x       y       z     vdW  Elec       q    Type
REMARK                         _______ _______ _______ _____ _____    ______ ____
ROOT
ATOM      1  N   LIG    1       24.059  42.195 185.951  0.00  0.00    -0.299 N 
ATOM      2  H   LIG    1       24.471  41.276 185.754  0.00  0.00    +0.150 HD
ENDROOT
BRANCH   1   5
ATOM      3  C   LIG    1       22.775  44.341 184.248  0.00  0.00    +0.409 C 
ATOM      4  N   LIG    1       23.789  43.457 184.021  0.00  0.00    -0.212 N 
ATOM      5  C   LIG    1       24.703  43.174 185.123  0.00  0.00    +0.235 C 
ATOM      6  S   LIG    1       26.088  42.210 184.385  0.00  0.00    -0.086 S 
ATOM      7  C   LIG    1       25.255  42.127 182.867  0.00  0.00    +0.006 C 
ATOM      8  C   LIG    1       25.618  41.462 181.578  0.00  0.00    +0.044 C 
ATOM      9  C   LIG    1       24.248  41.566 180.827  0.00  0.00    +0.011 C 
ATOM     10  C   LIG    1       23.431  42.732 181.476  0.00  0.00    +0.052 C 
ATOM     11  C   LIG    1       24.114  42.791 182.806  0.00  0.00    +0.029 C 
ATOM     12  O   LIG    1       22.628  44.904 185.332  0.00  0.00    -0.226 OA
BRANCH   3  13
ATOM     13  O   LIG    1       21.948  44.579 183.212  0.00  0.00    -0.450 OA
BRANCH  13  15
ATOM     14  C   LIG    1       21.832  46.144 181.463  0.00  0.00    +0.048 C 
ATOM     15  C   LIG    1       21.491  45.917 182.934  0.00  0.00    +0.230 C 
ENDBRANCH  13  15
ENDBRANCH   3  13
ENDBRANCH   1   5
BRANCH   1  16
ATOM     16  C   LIG    1       24.012  42.450 187.292  0.00  0.00    +0.136 C 
ATOM     17  S   LIG    1       25.356  42.260 188.274  0.00  0.00    -0.018 S 
BRANCH  16  18
ATOM     18  N   LIG    1       22.738  42.809 187.704  0.00  0.00    -0.297 N 
ATOM     19  H   LIG    1       21.970  42.275 187.256  0.00  0.00    +0.154 HD
BRANCH  18  20
ATOM     20  C   LIG    1       22.406  43.574 188.839  0.00  0.00    +0.033 A 
ATOM     21  C   LIG    1       21.774  44.801 188.628  0.00  0.00    +0.027 A 
ATOM     22  C   LIG    1       21.449  45.604 189.716  0.00  0.00    +0.047 A 
ATOM     23  C   LIG    1       21.766  45.174 191.008  0.00  0.00    +0.120 A 
ATOM     24  C   LIG    1       22.406  43.954 191.217  0.00  0.00    +0.047 A 
ATOM     25  C   LIG    1       22.732  43.150 190.131  0.00  0.00    +0.027 A 
BRANCH  23  26
ATOM     26  O   LIG    1       21.469  45.928 192.126  0.00  0.00    -0.495 OA
ATOM     27  C   LIG    1       20.153  46.420 192.463  0.00  0.00    +0.277 C 
ENDBRANCH  23  26
ENDBRANCH  18  20
ENDBRANCH  16  18
ENDBRANCH   1  16
TORSDOF 7
