REMARK VINA RESULT:      -9.0      1.937      2.275
REMARK  Name = ZINC000049483826
REMARK                            x       y       z     vdW  Elec       q    Type
REMARK                         _______ _______ _______ _____ _____    ______ ____
ROOT
ATOM      1  N   LIG    1       27.049  17.021 186.669  0.00  0.00    -0.175 NA
ATOM      2  C   LIG    1       27.574  15.846 187.372  0.00  0.00    +0.123 C 
ATOM      3  C   LIG    1       26.178  15.737 188.037  0.00  0.00    +0.109 C 
ATOM      4  C   LIG    1       25.940  17.209 187.610  0.00  0.00    +0.123 C 
ENDROOT
BRANCH   3   5
ATOM      5  C   LIG    1       26.256  15.569 189.535  0.00  0.00    +0.233 A 
ATOM      6  O   LIG    1       25.527  14.641 190.118  0.00  0.00    -0.337 OA
ATOM      7  N   LIG    1       25.765  14.689 191.410  0.00  0.00    -0.056 NA
ATOM      8  C   LIG    1       26.626  15.637 191.566  0.00  0.00    +0.209 A 
ATOM      9  N   LIG    1       26.953  16.211 190.380  0.00  0.00    -0.191 NA
BRANCH   8  10
ATOM     10  C   LIG    1       27.177  16.038 192.853  0.00  0.00    +0.060 A 
ATOM     11  S   LIG    1       26.298  15.814 194.337  0.00  0.00    -0.093 S 
ATOM     12  C   LIG    1       27.584  16.506 195.257  0.00  0.00    +0.046 A 
ATOM     13  C   LIG    1       28.628  16.886 194.461  0.00  0.00    +0.008 A 
ATOM     14  C   LIG    1       28.398  16.622 193.103  0.00  0.00    +0.019 A 
ENDBRANCH   8  10
ENDBRANCH   3   5
BRANCH   1  15
ATOM     15  S   LIG    1       26.850  17.050 185.038  0.00  0.00    +0.061 S 
ATOM     16  O   LIG    1       26.296  15.811 184.619  0.00  0.00    -0.153 OA
ATOM     17  O   LIG    1       26.104  18.218 184.713  0.00  0.00    -0.153 OA
BRANCH  15  20
ATOM     18  C   LIG    1       27.764  16.637 181.995  0.00  0.00    +0.046 C 
ATOM     19  C   LIG    1       28.833  17.018 183.007  0.00  0.00    -0.024 A 
ATOM     20  C   LIG    1       28.529  17.223 184.369  0.00  0.00    +0.110 A 
ATOM     21  C   LIG    1       29.561  17.578 185.244  0.00  0.00    +0.048 A 
ATOM     22  C   LIG    1       30.867  17.721 184.785  0.00  0.00    +0.043 A 
ATOM     23 CL   LIG    1       32.128  18.153 185.890  0.00  0.00    -0.083 Cl
ATOM     24  C   LIG    1       31.162  17.517 183.440  0.00  0.00    +0.020 A 
ATOM     25  C   LIG    1       30.147  17.168 182.560  0.00  0.00    +0.007 A 
ENDBRANCH  15  20
ENDBRANCH   1  15
TORSDOF 4
