REMARK VINA RESULT:      -6.7     24.487     27.525
REMARK  Name = ZINC000006083858
REMARK                            x       y       z     vdW  Elec       q    Type
REMARK                         _______ _______ _______ _____ _____    ______ ____
ROOT
ATOM      1  C   LIG    1       18.906  39.413 209.602  0.00  0.00    +0.257 A 
ATOM      2  C   LIG    1       18.927  38.896 210.963  0.00  0.00    +0.185 A 
ATOM      3  N   LIG    1       18.303  37.796 211.302  0.00  0.00    -0.225 NA
ATOM      4  C   LIG    1       17.640  37.144 210.288  0.00  0.00    +0.092 A 
ATOM      5  C   LIG    1       16.950  35.948 210.571  0.00  0.00    +0.030 A 
ATOM      6  C   LIG    1       16.275  35.270 209.576  0.00  0.00    +0.002 A 
ATOM      7  C   LIG    1       16.270  35.766 208.260  0.00  0.00    +0.002 A 
ATOM      8  C   LIG    1       16.939  36.933 207.956  0.00  0.00    +0.030 A 
ATOM      9  C   LIG    1       17.628  37.646 208.956  0.00  0.00    +0.093 A 
ATOM     10  N   LIG    1       18.275  38.822 208.622  0.00  0.00    -0.208 NA
ENDROOT
BRANCH   2  11
ATOM     11  N   LIG    1       19.587  39.594 211.985  0.00  0.00    -0.311 N 
ATOM     12  C   LIG    1       18.714  40.622 212.594  0.00  0.00    +0.131 C 
BRANCH  11  13
ATOM     13  C   LIG    1       20.473  38.807 212.899  0.00  0.00    +0.075 C 
ATOM     14  C   LIG    1       21.197  39.725 213.927  0.00  0.00    +0.022 C 
ATOM     15  C   LIG    1       22.121  40.731 213.208  0.00  0.00    +0.002 C 
ATOM     16  C   LIG    1       23.174  40.007 212.361  0.00  0.00    +0.000 C 
ATOM     17  C   LIG    1       22.482  39.080 211.357  0.00  0.00    +0.002 C 
ATOM     18  C   LIG    1       21.572  38.068 212.081  0.00  0.00    +0.022 C 
ENDBRANCH  11  13
ENDBRANCH   2  11
BRANCH   1  19
ATOM     19  O   LIG    1       19.567  40.590 209.320  0.00  0.00    -0.465 OA
BRANCH  19  20
ATOM     20  C   LIG    1       20.898  40.680 208.704  0.00  0.00    +0.326 C 
BRANCH  20  23
ATOM     21  N   LIG    1       22.776  42.225 208.801  0.00  0.00    -0.310 N 
ATOM     22  H   LIG    1       23.080  41.703 207.990  0.00  0.00    +0.149 HD
ATOM     23  C   LIG    1       21.610  41.863 209.340  0.00  0.00    +0.251 C 
ATOM     24  O   LIG    1       21.131  42.476 210.288  0.00  0.00    -0.272 OA
BRANCH  21  25
ATOM     25  C   LIG    1       23.595  43.344 209.219  0.00  0.00    +0.073 C 
ATOM     26  C   LIG    1       24.089  44.053 207.958  0.00  0.00    +0.028 C 
BRANCH  25  28
ATOM     27  C   LIG    1       26.109  43.308 209.592  0.00  0.00    +0.009 C 
ATOM     28  C   LIG    1       24.743  42.864 210.141  0.00  0.00    +0.003 C 
ATOM     29  C   LIG    1       24.628  43.329 211.607  0.00  0.00    +0.009 C 
ENDBRANCH  25  28
ENDBRANCH  21  25
ENDBRANCH  20  23
ENDBRANCH  19  20
ENDBRANCH   1  19
TORSDOF 7
