REMARK VINA RESULT:      -7.3     25.554     27.602
REMARK  Name = ZINC000006087320
REMARK                            x       y       z     vdW  Elec       q    Type
REMARK                         _______ _______ _______ _____ _____    ______ ____
ROOT
ATOM      1  C   LIG    1       21.976  47.564 182.931  0.00  0.00    +0.222 C 
ENDROOT
BRANCH   1   2
ATOM      2  N   LIG    1       22.634  46.354 183.481  0.00  0.00    -0.290 N 
ATOM      3  C   LIG    1       23.743  45.810 182.857  0.00  0.00    +0.262 A 
ATOM      4  O   LIG    1       24.144  46.362 181.828  0.00  0.00    -0.267 OA
ATOM      5  C   LIG    1       24.343  44.629 183.438  0.00  0.00    +0.068 A 
ATOM      6  C   LIG    1       25.486  44.030 182.887  0.00  0.00    +0.035 A 
ATOM      7  C   LIG    1       26.027  42.892 183.476  0.00  0.00    +0.043 A 
ATOM      8 CL   LIG    1       27.434  42.155 182.793  0.00  0.00    -0.083 Cl
ATOM      9  C   LIG    1       25.440  42.340 184.617  0.00  0.00    +0.042 A 
ATOM     10  C   LIG    1       24.308  42.930 185.167  0.00  0.00    +0.068 A 
ATOM     11 CL   LIG    1       23.605  42.216 186.585  0.00  0.00    -0.081 Cl
ATOM     12  C   LIG    1       23.743  44.085 184.581  0.00  0.00    +0.096 A 
ATOM     13  N   LIG    1       22.593  44.696 185.116  0.00  0.00    -0.235 NA
ATOM     14  C   LIG    1       22.082  45.745 184.594  0.00  0.00    +0.203 A 
ENDBRANCH   1   2
BRANCH   1  17
ATOM     15  N   LIG    1       20.157  48.442 184.342  0.00  0.00    -0.284 N 
ATOM     16  H   LIG    1       19.593  47.869 183.690  0.00  0.00    +0.155 HD
ATOM     17  C   LIG    1       21.510  48.408 184.106  0.00  0.00    +0.237 C 
ATOM     18  O   LIG    1       22.300  49.002 184.808  0.00  0.00    -0.274 OA
BRANCH  15  20
ATOM     19  C   LIG    1       18.796  50.359 184.917  0.00  0.00    -0.026 A 
ATOM     20  C   LIG    1       19.421  49.165 185.318  0.00  0.00    +0.037 A 
ATOM     21  C   LIG    1       19.294  48.700 186.631  0.00  0.00    +0.023 A 
ATOM     22  C   LIG    1       18.565  49.438 187.556  0.00  0.00    +0.002 A 
ATOM     23  C   LIG    1       17.956  50.629 187.174  0.00  0.00    +0.000 A 
ATOM     24  C   LIG    1       18.072  51.084 185.863  0.00  0.00    +0.005 A 
BRANCH  19  26
ATOM     25  C   LIG    1       17.587  50.495 182.786  0.00  0.00    +0.009 C 
ATOM     26  C   LIG    1       18.886  50.903 183.496  0.00  0.00    +0.033 C 
ENDBRANCH  19  26
ENDBRANCH  15  20
ENDBRANCH   1  17
TORSDOF 4
