REMARK VINA RESULT:      -7.9     31.014     32.147
REMARK  Name = ZINC000049483826
REMARK                            x       y       z     vdW  Elec       q    Type
REMARK                         _______ _______ _______ _____ _____    ______ ____
ROOT
ATOM      1  N   LIG    1       20.729  46.966 183.639  0.00  0.00    -0.175 NA
ATOM      2  C   LIG    1       20.576  47.360 185.043  0.00  0.00    +0.123 C 
ATOM      3  C   LIG    1       22.041  46.893 185.235  0.00  0.00    +0.109 C 
ATOM      4  C   LIG    1       21.891  46.111 183.904  0.00  0.00    +0.123 C 
ENDROOT
BRANCH   3   5
ATOM      5  C   LIG    1       22.213  45.986 186.429  0.00  0.00    +0.233 A 
ATOM      6  O   LIG    1       22.715  44.782 186.257  0.00  0.00    -0.337 OA
ATOM      7  N   LIG    1       22.766  44.190 187.430  0.00  0.00    -0.056 NA
ATOM      8  C   LIG    1       22.297  45.050 188.269  0.00  0.00    +0.209 A 
ATOM      9  N   LIG    1       21.938  46.204 187.650  0.00  0.00    -0.191 NA
BRANCH   8  10
ATOM     10  C   LIG    1       22.169  44.812 189.700  0.00  0.00    +0.060 A 
ATOM     11  S   LIG    1       21.076  45.734 190.690  0.00  0.00    -0.093 S 
ATOM     12  C   LIG    1       21.542  44.858 192.102  0.00  0.00    +0.046 A 
ATOM     13  C   LIG    1       22.485  43.910 191.821  0.00  0.00    +0.008 A 
ATOM     14  C   LIG    1       22.840  43.884 190.465  0.00  0.00    +0.019 A 
ENDBRANCH   8  10
ENDBRANCH   3   5
BRANCH   1  15
ATOM     15  S   LIG    1       20.686  48.058 182.412  0.00  0.00    +0.061 S 
ATOM     16  O   LIG    1       21.905  47.985 181.687  0.00  0.00    -0.153 OA
ATOM     17  O   LIG    1       19.495  47.829 181.668  0.00  0.00    -0.153 OA
BRANCH  15  20
ATOM     18  C   LIG    1       18.036  49.810 182.831  0.00  0.00    +0.046 C 
ATOM     19  C   LIG    1       19.344  50.371 183.365  0.00  0.00    -0.024 A 
ATOM     20  C   LIG    1       20.562  49.674 183.231  0.00  0.00    +0.110 A 
ATOM     21  C   LIG    1       21.727  50.245 183.752  0.00  0.00    +0.048 A 
ATOM     22  C   LIG    1       21.691  51.484 184.388  0.00  0.00    +0.043 A 
ATOM     23 CL   LIG    1       23.149  52.174 185.017  0.00  0.00    -0.083 Cl
ATOM     24  C   LIG    1       20.487  52.168 184.518  0.00  0.00    +0.020 A 
ATOM     25  C   LIG    1       19.321  51.610 184.009  0.00  0.00    +0.007 A 
ENDBRANCH  15  20
ENDBRANCH   1  15
TORSDOF 4
