REMARK VINA RESULT:      -7.4     32.096     35.506
REMARK  Name = ZINC000009107243
REMARK                            x       y       z     vdW  Elec       q    Type
REMARK                         _______ _______ _______ _____ _____    ______ ____
ROOT
ATOM      1  N   LIG    1       21.112  41.896 209.382  0.00  0.00    -0.285 N 
ATOM      2  H   LIG    1       20.432  42.669 209.395  0.00  0.00    +0.155 HD
ATOM      3  C   LIG    1       20.689  40.772 208.720  0.00  0.00    +0.222 C 
ATOM      4  O   LIG    1       21.456  39.861 208.487  0.00  0.00    -0.275 OA
ENDROOT
BRANCH   1   9
ATOM      5  N   LIG    1       26.194  42.838 211.592  0.00  0.00    -0.271 N 
ATOM      6  C   LIG    1       24.892  42.602 211.045  0.00  0.00    +0.040 A 
ATOM      7  C   LIG    1       23.841  42.127 211.840  0.00  0.00    +0.025 A 
ATOM      8  C   LIG    1       22.594  41.905 211.271  0.00  0.00    +0.025 A 
ATOM      9  C   LIG    1       22.398  42.161 209.913  0.00  0.00    +0.034 A 
ATOM     10  C   LIG    1       23.444  42.633 209.115  0.00  0.00    +0.028 A 
ATOM     11  C   LIG    1       24.696  42.864 209.680  0.00  0.00    -0.024 A 
ATOM     12  C   LIG    1       25.836  43.381 208.824  0.00  0.00    +0.046 C 
ATOM     13  C   LIG    1       26.574  44.412 209.696  0.00  0.00    +0.101 C 
ATOM     14  C   LIG    1       27.072  43.669 210.917  0.00  0.00    +0.220 C 
ATOM     15  O   LIG    1       28.221  43.789 211.303  0.00  0.00    -0.275 OA
BRANCH   5  16
ATOM     16  C   LIG    1       26.657  42.150 212.815  0.00  0.00    +0.113 C 
BRANCH  16  18
ATOM     17  C   LIG    1       26.565  39.696 213.132  0.00  0.00    +0.005 C 
ATOM     18  C   LIG    1       27.267  40.813 212.346  0.00  0.00    +0.016 C 
ENDBRANCH  16  18
ENDBRANCH   5  16
ENDBRANCH   1   9
BRANCH   3  19
ATOM     19  C   LIG    1       19.234  40.716 208.292  0.00  0.00    +0.131 C 
BRANCH  19  20
ATOM     20  C   LIG    1       18.611  39.463 208.893  0.00  0.00    -0.035 A 
ATOM     21  C   LIG    1       17.805  38.630 208.114  0.00  0.00    +0.053 A 
ATOM     22  C   LIG    1       17.262  37.465 208.663  0.00  0.00    +0.162 A 
ATOM     23  C   LIG    1       17.531  37.134 210.003  0.00  0.00    +0.161 A 
ATOM     24  C   LIG    1       18.330  37.970 210.776  0.00  0.00    +0.049 A 
ATOM     25  C   LIG    1       18.868  39.129 210.224  0.00  0.00    +0.008 A 
BRANCH  22  26
ATOM     26  O   LIG    1       16.466  36.642 207.874  0.00  0.00    -0.491 OA
ATOM     27  C   LIG    1       16.891  35.454 207.167  0.00  0.00    +0.277 C 
ENDBRANCH  22  26
BRANCH  23  28
ATOM     28  O   LIG    1       17.054  36.003 210.657  0.00  0.00    -0.491 OA
ATOM     29  C   LIG    1       16.171  35.941 211.799  0.00  0.00    +0.277 C 
ENDBRANCH  23  28
ENDBRANCH  19  20
ENDBRANCH   3  19
TORSDOF 7
