MODEL 1
REMARK VINA RESULT:      -7.4      0.000      0.000
REMARK  Name = ZINC000006087400
REMARK                            x       y       z     vdW  Elec       q    Type
REMARK                         _______ _______ _______ _____ _____    ______ ____
ROOT
ATOM      1  C   LIG    1       27.470  43.773 181.724  0.00  0.00    +0.214 C 
ENDROOT
BRANCH   1   7
ATOM      2  C   LIG    1       25.691  47.792 180.867  0.00  0.00    +0.010 C 
ATOM      3  C   LIG    1       26.299  47.766 179.447  0.00  0.00    +0.018 C 
ATOM      4  C   LIG    1       27.367  46.634 179.281  0.00  0.00    +0.115 C 
ATOM      5  C   LIG    1       26.907  45.258 179.778  0.00  0.00    +0.247 C 
ATOM      6  O   LIG    1       26.041  44.509 179.361  0.00  0.00    -0.273 OA
ATOM      7  N   LIG    1       27.682  44.930 180.849  0.00  0.00    -0.215 N 
ATOM      8  C   LIG    1       28.593  45.920 181.101  0.00  0.00    +0.310 C 
ATOM      9  O   LIG    1       29.375  45.937 182.034  0.00  0.00    -0.252 OA
ATOM     10  N   LIG    1       28.492  46.887 180.169  0.00  0.00    -0.285 N 
ATOM     11  H   LIG    1       28.880  47.816 180.370  0.00  0.00    +0.151 HD
ATOM     12  C   LIG    1       27.924  46.594 177.835  0.00  0.00    +0.035 C 
ATOM     13  C   LIG    1       26.767  46.426 176.833  0.00  0.00    +0.003 C 
ATOM     14  C   LIG    1       25.723  47.539 176.988  0.00  0.00    +0.000 C 
ATOM     15  C   LIG    1       25.169  47.570 178.418  0.00  0.00    +0.006 C 
ENDBRANCH   1   7
BRANCH   1  16
ATOM     16  C   LIG    1       26.454  44.186 182.791  0.00  0.00    +0.238 C 
ATOM     17  N   LIG    1       25.245  43.516 182.899  0.00  0.00    -0.267 N 
ATOM     18  O   LIG    1       26.686  45.102 183.567  0.00  0.00    -0.274 OA
BRANCH  17  19
ATOM     19  C   LIG    1       24.836  42.534 181.966  0.00  0.00    +0.010 C 
ATOM     20  C   LIG    1       23.663  42.921 181.084  0.00  0.00    +0.051 C 
ATOM     21  C   LIG    1       23.057  41.619 180.513  0.00  0.00    +0.006 C 
ATOM     22  C   LIG    1       24.199  40.825 179.847  0.00  0.00    +0.004 C 
ATOM     23  C   LIG    1       25.096  40.239 180.959  0.00  0.00    +0.029 C 
ATOM     24  C   LIG    1       25.491  41.360 181.902  0.00  0.00    -0.008 C 
ENDBRANCH  17  19
BRANCH  17  25
ATOM     25  C   LIG    1       24.307  43.879 183.978  0.00  0.00    +0.187 C 
BRANCH  25  26
ATOM     26  C   LIG    1       24.550  42.877 185.090  0.00  0.00    +0.122 A 
ATOM     27  O   LIG    1       23.588  42.630 186.022  0.00  0.00    -0.466 OA
ATOM     28  C   LIG    1       24.088  41.710 186.884  0.00  0.00    +0.195 A 
ATOM     29  C   LIG    1       25.343  41.376 186.511  0.00  0.00    +0.041 A 
ATOM     30  C   LIG    1       25.639  42.122 185.366  0.00  0.00    +0.046 A 
ENDBRANCH  25  26
ENDBRANCH  17  25
ENDBRANCH   1  16
TORSDOF 5
ENDMDL
MODEL 2
REMARK VINA RESULT:      -7.4      4.671      6.498
REMARK  Name = ZINC000006087400
REMARK                            x       y       z     vdW  Elec       q    Type
REMARK                         _______ _______ _______ _____ _____    ______ ____
ROOT
ATOM      1  C   LIG    1       21.973  46.434 182.995  0.00  0.00    +0.214 C 
ENDROOT
BRANCH   1   7
ATOM      2  C   LIG    1       18.532  48.802 184.607  0.00  0.00    +0.010 C 
ATOM      3  C   LIG    1       19.480  49.981 184.919  0.00  0.00    +0.018 C 
ATOM      4  C   LIG    1       20.987  49.568 184.832  0.00  0.00    +0.115 C 
ATOM      5  C   LIG    1       21.356  48.805 183.554  0.00  0.00    +0.247 C 
ATOM      6  O   LIG    1       21.382  49.165 182.391  0.00  0.00    -0.273 OA
ATOM      7  N   LIG    1       21.708  47.541 183.920  0.00  0.00    -0.215 N 
ATOM      8  C   LIG    1       21.622  47.395 185.278  0.00  0.00    +0.310 C 
ATOM      9  O   LIG    1       21.812  46.360 185.889  0.00  0.00    -0.252 OA
ATOM     10  N   LIG    1       21.280  48.567 185.847  0.00  0.00    -0.285 N 
ATOM     11  H   LIG    1       20.891  48.567 186.797  0.00  0.00    +0.151 HD
ATOM     12  C   LIG    1       21.918  50.778 185.098  0.00  0.00    +0.035 C 
ATOM     13  C   LIG    1       21.589  51.917 184.114  0.00  0.00    +0.003 C 
ATOM     14  C   LIG    1       20.115  52.330 184.204  0.00  0.00    +0.000 C 
ATOM     15  C   LIG    1       19.197  51.131 183.934  0.00  0.00    +0.006 C 
ENDBRANCH   1   7
BRANCH   1  16
ATOM     16  C   LIG    1       23.492  46.320 182.841  0.00  0.00    +0.238 C 
ATOM     17  N   LIG    1       24.035  45.418 181.938  0.00  0.00    -0.267 N 
ATOM     18  O   LIG    1       24.250  47.016 183.500  0.00  0.00    -0.274 OA
BRANCH  17  19
ATOM     19  C   LIG    1       23.242  44.483 181.231  0.00  0.00    +0.010 C 
ATOM     20  C   LIG    1       22.727  43.314 182.051  0.00  0.00    +0.051 C 
ATOM     21  C   LIG    1       22.334  42.189 181.067  0.00  0.00    +0.006 C 
ATOM     22  C   LIG    1       21.368  42.793 180.028  0.00  0.00    +0.004 C 
ATOM     23  C   LIG    1       22.180  43.705 179.083  0.00  0.00    +0.029 C 
ATOM     24  C   LIG    1       22.987  44.676 179.925  0.00  0.00    -0.008 C 
ENDBRANCH  17  19
BRANCH  17  25
ATOM     25  C   LIG    1       25.497  45.371 181.750  0.00  0.00    +0.187 C 
BRANCH  25  26
ATOM     26  C   LIG    1       25.973  44.159 182.525  0.00  0.00    +0.122 A 
ATOM     27  O   LIG    1       25.887  44.128 183.884  0.00  0.00    -0.466 OA
ATOM     28  C   LIG    1       26.393  42.938 184.294  0.00  0.00    +0.195 A 
ATOM     29  C   LIG    1       26.794  42.223 183.220  0.00  0.00    +0.041 A 
ATOM     30  C   LIG    1       26.527  43.003 182.090  0.00  0.00    +0.046 A 
ENDBRANCH  25  26
ENDBRANCH  17  25
ENDBRANCH   1  16
TORSDOF 5
ENDMDL
MODEL 3
REMARK VINA RESULT:      -7.3     28.233     30.372
REMARK  Name = ZINC000006087400
REMARK                            x       y       z     vdW  Elec       q    Type
REMARK                         _______ _______ _______ _____ _____    ______ ____
ROOT
ATOM      1  C   LIG    1       19.625  40.117 211.071  0.00  0.00    +0.214 C 
ENDROOT
BRANCH   1   7
ATOM      2  C   LIG    1       15.558  40.147 209.198  0.00  0.00    +0.010 C 
ATOM      3  C   LIG    1       15.803  38.733 208.626  0.00  0.00    +0.018 C 
ATOM      4  C   LIG    1       17.307  38.309 208.722  0.00  0.00    +0.115 C 
ATOM      5  C   LIG    1       17.935  38.530 210.103  0.00  0.00    +0.247 C 
ATOM      6  O   LIG    1       17.711  37.997 211.175  0.00  0.00    -0.273 OA
ATOM      7  N   LIG    1       18.894  39.488 209.967  0.00  0.00    -0.215 N 
ATOM      8  C   LIG    1       18.970  39.907 208.666  0.00  0.00    +0.310 C 
ATOM      9  O   LIG    1       19.688  40.799 208.254  0.00  0.00    -0.252 OA
ATOM     10  N   LIG    1       18.120  39.194 207.902  0.00  0.00    -0.285 N 
ATOM     11  H   LIG    1       17.838  39.566 206.988  0.00  0.00    +0.151 HD
ATOM     12  C   LIG    1       17.519  36.868 208.191  0.00  0.00    +0.035 C 
ATOM     13  C   LIG    1       16.608  35.889 208.955  0.00  0.00    +0.003 C 
ATOM     14  C   LIG    1       15.134  36.298 208.856  0.00  0.00    +0.000 C 
ATOM     15  C   LIG    1       14.927  37.722 209.388  0.00  0.00    +0.006 C 
ENDBRANCH   1   7
BRANCH   1  16
ATOM     16  C   LIG    1       20.979  39.413 211.185  0.00  0.00    +0.238 C 
ATOM     17  N   LIG    1       22.155  40.142 211.085  0.00  0.00    -0.267 N 
ATOM     18  O   LIG    1       21.053  38.207 211.370  0.00  0.00    -0.274 OA
BRANCH  17  19
ATOM     19  C   LIG    1       22.169  41.514 210.742  0.00  0.00    +0.010 C 
ATOM     20  C   LIG    1       22.761  41.841 209.383  0.00  0.00    +0.051 C 
ATOM     21  C   LIG    1       23.145  43.337 209.387  0.00  0.00    +0.006 C 
ATOM     22  C   LIG    1       21.899  44.139 209.816  0.00  0.00    +0.004 C 
ATOM     23  C   LIG    1       21.676  43.915 211.328  0.00  0.00    +0.029 C 
ATOM     24  C   LIG    1       21.666  42.422 211.599  0.00  0.00    -0.008 C 
ENDBRANCH  17  19
BRANCH  17  25
ATOM     25  C   LIG    1       23.449  39.460 211.268  0.00  0.00    +0.187 C 
BRANCH  25  26
ATOM     26  C   LIG    1       24.208  40.283 212.290  0.00  0.00    +0.122 A 
ATOM     27  O   LIG    1       23.747  40.399 213.567  0.00  0.00    -0.466 OA
ATOM     28  C   LIG    1       24.616  41.194 214.239  0.00  0.00    +0.195 A 
ATOM     29  C   LIG    1       25.612  41.578 213.410  0.00  0.00    +0.041 A 
ATOM     30  C   LIG    1       25.351  40.997 212.165  0.00  0.00    +0.046 A 
ENDBRANCH  25  26
ENDBRANCH  17  25
ENDBRANCH   1  16
TORSDOF 5
ENDMDL
MODEL 4
REMARK VINA RESULT:      -7.3     28.295     30.585
REMARK  Name = ZINC000006087400
REMARK                            x       y       z     vdW  Elec       q    Type
REMARK                         _______ _______ _______ _____ _____    ______ ____
ROOT
ATOM      1  C   LIG    1       17.926  40.142 210.367  0.00  0.00    +0.214 C 
ENDROOT
BRANCH   1   7
ATOM      2  C   LIG    1       14.712  37.215 211.440  0.00  0.00    +0.010 C 
ATOM      3  C   LIG    1       14.949  36.458 210.114  0.00  0.00    +0.018 C 
ATOM      4  C   LIG    1       15.830  37.278 209.114  0.00  0.00    +0.115 C 
ATOM      5  C   LIG    1       17.111  37.853 209.730  0.00  0.00    +0.247 C 
ATOM      6  O   LIG    1       18.106  37.297 210.160  0.00  0.00    -0.273 OA
ATOM      7  N   LIG    1       16.997  39.210 209.721  0.00  0.00    -0.215 N 
ATOM      8  C   LIG    1       15.803  39.585 209.166  0.00  0.00    +0.310 C 
ATOM      9  O   LIG    1       15.393  40.728 209.081  0.00  0.00    -0.252 OA
ATOM     10  N   LIG    1       15.134  38.499 208.734  0.00  0.00    -0.285 N 
ATOM     11  H   LIG    1       14.123  38.568 208.569  0.00  0.00    +0.151 HD
ATOM     12  C   LIG    1       16.096  36.478 207.813  0.00  0.00    +0.035 C 
ATOM     13  C   LIG    1       16.746  35.125 208.155  0.00  0.00    +0.003 C 
ATOM     14  C   LIG    1       15.881  34.315 209.128  0.00  0.00    +0.000 C 
ATOM     15  C   LIG    1       15.625  35.107 210.417  0.00  0.00    +0.006 C 
ENDBRANCH   1   7
BRANCH   1  16
ATOM     16  C   LIG    1       19.067  40.408 209.382  0.00  0.00    +0.238 C 
ATOM     17  N   LIG    1       20.382  40.184 209.762  0.00  0.00    -0.267 N 
ATOM     18  O   LIG    1       18.846  40.813 208.250  0.00  0.00    -0.274 OA
BRANCH  17  19
ATOM     19  C   LIG    1       20.740  39.842 211.087  0.00  0.00    +0.010 C 
ATOM     20  C   LIG    1       20.510  40.925 212.125  0.00  0.00    +0.051 C 
ATOM     21  C   LIG    1       21.382  40.588 213.355  0.00  0.00    +0.006 C 
ATOM     22  C   LIG    1       21.058  39.139 213.775  0.00  0.00    +0.004 C 
ATOM     23  C   LIG    1       21.680  38.183 212.734  0.00  0.00    +0.029 C 
ATOM     24  C   LIG    1       21.235  38.618 211.351  0.00  0.00    -0.008 C 
ENDBRANCH  17  19
BRANCH  17  25
ATOM     25  C   LIG    1       21.464  40.375 208.778  0.00  0.00    +0.187 C 
BRANCH  25  26
ATOM     26  C   LIG    1       22.270  41.558 209.277  0.00  0.00    +0.122 A 
ATOM     27  O   LIG    1       21.666  42.756 209.517  0.00  0.00    -0.466 OA
ATOM     28  C   LIG    1       22.628  43.615 209.938  0.00  0.00    +0.195 A 
ATOM     29  C   LIG    1       23.821  42.980 209.967  0.00  0.00    +0.041 A 
ATOM     30  C   LIG    1       23.592  41.667 209.543  0.00  0.00    +0.046 A 
ENDBRANCH  25  26
ENDBRANCH  17  25
ENDBRANCH   1  16
TORSDOF 5
ENDMDL
MODEL 5
REMARK VINA RESULT:      -7.2      4.918      6.962
REMARK  Name = ZINC000006087400
REMARK                            x       y       z     vdW  Elec       q    Type
REMARK                         _______ _______ _______ _____ _____    ______ ____
ROOT
ATOM      1  C   LIG    1       22.639  47.694 182.015  0.00  0.00    +0.214 C 
ENDROOT
BRANCH   1   7
ATOM      2  C   LIG    1       20.159  47.975 185.733  0.00  0.00    +0.010 C 
ATOM      3  C   LIG    1       20.248  49.516 185.684  0.00  0.00    +0.018 C 
ATOM      4  C   LIG    1       21.337  50.015 184.676  0.00  0.00    +0.115 C 
ATOM      5  C   LIG    1       21.258  49.360 183.292  0.00  0.00    +0.247 C 
ATOM      6  O   LIG    1       20.410  49.436 182.421  0.00  0.00    -0.273 OA
ATOM      7  N   LIG    1       22.387  48.615 183.128  0.00  0.00    -0.215 N 
ATOM      8  C   LIG    1       23.190  48.714 184.232  0.00  0.00    +0.310 C 
ATOM      9  O   LIG    1       24.232  48.108 184.403  0.00  0.00    -0.252 OA
ATOM     10  N   LIG    1       22.652  49.575 185.117  0.00  0.00    -0.285 N 
ATOM     11  H   LIG    1       22.958  49.541 186.096  0.00  0.00    +0.151 HD
ATOM     12  C   LIG    1       21.371  51.563 184.606  0.00  0.00    +0.035 C 
ATOM     13  C   LIG    1       19.975  52.101 184.238  0.00  0.00    +0.003 C 
ATOM     14  C   LIG    1       18.908  51.621 185.229  0.00  0.00    +0.000 C 
ATOM     15  C   LIG    1       18.873  50.089 185.290  0.00  0.00    +0.006 C 
ENDBRANCH   1   7
BRANCH   1  16
ATOM     16  C   LIG    1       22.162  46.307 182.451  0.00  0.00    +0.238 C 
ATOM     17  N   LIG    1       23.038  45.232 182.439  0.00  0.00    -0.267 N 
ATOM     18  O   LIG    1       21.011  46.119 182.820  0.00  0.00    -0.274 OA
BRANCH  17  19
ATOM     19  C   LIG    1       24.346  45.327 181.906  0.00  0.00    +0.010 C 
ATOM     20  C   LIG    1       24.425  45.490 180.399  0.00  0.00    +0.051 C 
ATOM     21  C   LIG    1       25.849  45.084 179.958  0.00  0.00    +0.006 C 
ATOM     22  C   LIG    1       26.850  45.899 180.802  0.00  0.00    +0.004 C 
ATOM     23  C   LIG    1       26.843  45.335 182.240  0.00  0.00    +0.029 C 
ATOM     24  C   LIG    1       25.408  45.280 182.730  0.00  0.00    -0.008 C 
ENDBRANCH  17  19
BRANCH  17  25
ATOM     25  C   LIG    1       22.583  43.919 182.930  0.00  0.00    +0.187 C 
BRANCH  25  26
ATOM     26  C   LIG    1       22.449  43.042 181.701  0.00  0.00    +0.122 A 
ATOM     27  O   LIG    1       23.282  41.980 181.513  0.00  0.00    -0.466 OA
ATOM     28  C   LIG    1       22.937  41.398 180.338  0.00  0.00    +0.195 A 
ATOM     29  C   LIG    1       21.904  42.073 179.786  0.00  0.00    +0.041 A 
ATOM     30  C   LIG    1       21.594  43.124 180.656  0.00  0.00    +0.046 A 
ENDBRANCH  25  26
ENDBRANCH  17  25
ENDBRANCH   1  16
TORSDOF 5
ENDMDL
MODEL 6
REMARK VINA RESULT:      -7.1     28.287     30.991
REMARK  Name = ZINC000006087400
REMARK                            x       y       z     vdW  Elec       q    Type
REMARK                         _______ _______ _______ _____ _____    ______ ____
ROOT
ATOM      1  C   LIG    1       19.507  40.521 209.927  0.00  0.00    +0.214 C 
ENDROOT
BRANCH   1   7
ATOM      2  C   LIG    1       15.166  39.491 209.544  0.00  0.00    +0.010 C 
ATOM      3  C   LIG    1       15.517  37.987 209.529  0.00  0.00    +0.018 C 
ATOM      4  C   LIG    1       17.047  37.738 209.316  0.00  0.00    +0.115 C 
ATOM      5  C   LIG    1       17.952  38.571 210.232  0.00  0.00    +0.247 C 
ATOM      6  O   LIG    1       18.109  38.539 211.440  0.00  0.00    -0.273 OA
ATOM      7  N   LIG    1       18.650  39.433 209.443  0.00  0.00    -0.215 N 
ATOM      8  C   LIG    1       18.315  39.255 208.127  0.00  0.00    +0.310 C 
ATOM      9  O   LIG    1       18.727  39.925 207.198  0.00  0.00    -0.252 OA
ATOM     10  N   LIG    1       17.447  38.233 208.008  0.00  0.00    -0.285 N 
ATOM     11  H   LIG    1       16.879  38.157 207.156  0.00  0.00    +0.151 HD
ATOM     12  C   LIG    1       17.382  36.225 209.357  0.00  0.00    +0.035 C 
ATOM     13  C   LIG    1       16.892  35.617 210.685  0.00  0.00    +0.003 C 
ATOM     14  C   LIG    1       15.391  35.852 210.892  0.00  0.00    +0.000 C 
ATOM     15  C   LIG    1       15.065  37.350 210.857  0.00  0.00    +0.006 C 
ENDBRANCH   1   7
BRANCH   1  16
ATOM     16  C   LIG    1       20.958  40.054 209.794  0.00  0.00    +0.238 C 
ATOM     17  N   LIG    1       21.692  39.725 210.924  0.00  0.00    -0.267 N 
ATOM     18  O   LIG    1       21.496  39.957 208.700  0.00  0.00    -0.274 OA
BRANCH  17  19
ATOM     19  C   LIG    1       21.198  39.931 212.234  0.00  0.00    +0.010 C 
ATOM     20  C   LIG    1       20.922  41.376 212.607  0.00  0.00    +0.051 C 
ATOM     21  C   LIG    1       20.881  41.462 214.149  0.00  0.00    +0.006 C 
ATOM     22  C   LIG    1       19.872  40.408 214.649  0.00  0.00    +0.004 C 
ATOM     23  C   LIG    1       20.506  39.010 214.475  0.00  0.00    +0.029 C 
ATOM     24  C   LIG    1       20.995  38.876 213.045  0.00  0.00    -0.008 C 
ENDBRANCH  17  19
BRANCH  17  25
ATOM     25  C   LIG    1       23.065  39.209 210.774  0.00  0.00    +0.187 C 
BRANCH  25  26
ATOM     26  C   LIG    1       23.970  40.260 211.382  0.00  0.00    +0.122 A 
ATOM     27  O   LIG    1       23.996  41.527 210.880  0.00  0.00    -0.466 OA
ATOM     28  C   LIG    1       24.896  42.233 211.610  0.00  0.00    +0.195 A 
ATOM     29  C   LIG    1       25.434  41.434 212.558  0.00  0.00    +0.041 A 
ATOM     30  C   LIG    1       24.844  40.175 212.412  0.00  0.00    +0.046 A 
ENDBRANCH  25  26
ENDBRANCH  17  25
ENDBRANCH   1  16
TORSDOF 5
ENDMDL
MODEL 7
REMARK VINA RESULT:      -7.1      4.884      6.665
REMARK  Name = ZINC000006087400
REMARK                            x       y       z     vdW  Elec       q    Type
REMARK                         _______ _______ _______ _____ _____    ______ ____
ROOT
ATOM      1  C   LIG    1       22.807  48.019 181.810  0.00  0.00    +0.214 C 
ENDROOT
BRANCH   1   7
ATOM      2  C   LIG    1       19.968  47.768 185.263  0.00  0.00    +0.010 C 
ATOM      3  C   LIG    1       20.060  49.298 185.459  0.00  0.00    +0.018 C 
ATOM      4  C   LIG    1       21.243  49.928 184.652  0.00  0.00    +0.115 C 
ATOM      5  C   LIG    1       21.304  49.492 183.183  0.00  0.00    +0.247 C 
ATOM      6  O   LIG    1       20.547  49.712 182.255  0.00  0.00    -0.273 OA
ATOM      7  N   LIG    1       22.444  48.764 183.020  0.00  0.00    -0.215 N 
ATOM      8  C   LIG    1       23.133  48.682 184.200  0.00  0.00    +0.310 C 
ATOM      9  O   LIG    1       24.153  48.043 184.379  0.00  0.00    -0.252 OA
ATOM     10  N   LIG    1       22.508  49.406 185.149  0.00  0.00    -0.285 N 
ATOM     11  H   LIG    1       22.715  49.220 186.136  0.00  0.00    +0.151 HD
ATOM     12  C   LIG    1       21.283  51.468 184.823  0.00  0.00    +0.035 C 
ATOM     13  C   LIG    1       19.931  52.076 184.405  0.00  0.00    +0.003 C 
ATOM     14  C   LIG    1       18.771  51.466 185.200  0.00  0.00    +0.000 C 
ATOM     15  C   LIG    1       18.731  49.943 185.023  0.00  0.00    +0.006 C 
ENDBRANCH   1   7
BRANCH   1  16
ATOM     16  C   LIG    1       22.296  46.587 181.982  0.00  0.00    +0.238 C 
ATOM     17  N   LIG    1       23.149  45.513 181.778  0.00  0.00    -0.267 N 
ATOM     18  O   LIG    1       21.138  46.362 182.305  0.00  0.00    -0.274 OA
BRANCH  17  19
ATOM     19  C   LIG    1       24.463  45.673 181.278  0.00  0.00    +0.010 C 
ATOM     20  C   LIG    1       24.633  45.397 179.795  0.00  0.00    +0.051 C 
ATOM     21  C   LIG    1       26.134  45.134 179.537  0.00  0.00    +0.006 C 
ATOM     22  C   LIG    1       26.924  46.323 180.121  0.00  0.00    +0.004 C 
ATOM     23  C   LIG    1       26.893  46.215 181.662  0.00  0.00    +0.029 C 
ATOM     24  C   LIG    1       25.451  46.057 182.106  0.00  0.00    -0.008 C 
ENDBRANCH  17  19
BRANCH  17  25
ATOM     25  C   LIG    1       22.660  44.143 182.019  0.00  0.00    +0.187 C 
BRANCH  25  26
ATOM     26  C   LIG    1       23.231  43.731 183.361  0.00  0.00    +0.122 A 
ATOM     27  O   LIG    1       22.607  44.091 184.518  0.00  0.00    -0.466 OA
ATOM     28  C   LIG    1       23.344  43.597 185.544  0.00  0.00    +0.195 A 
ATOM     29  C   LIG    1       24.416  42.934 185.054  0.00  0.00    +0.041 A 
ATOM     30  C   LIG    1       24.344  43.022 183.660  0.00  0.00    +0.046 A 
ENDBRANCH  25  26
ENDBRANCH  17  25
ENDBRANCH   1  16
TORSDOF 5
ENDMDL
MODEL 8
REMARK VINA RESULT:      -7.0     26.989     29.779
REMARK  Name = ZINC000006087400
REMARK                            x       y       z     vdW  Elec       q    Type
REMARK                         _______ _______ _______ _____ _____    ______ ____
ROOT
ATOM      1  C   LIG    1       23.335  41.366 209.612  0.00  0.00    +0.214 C 
ENDROOT
BRANCH   1   7
ATOM      2  C   LIG    1       19.357  39.918 208.152  0.00  0.00    +0.010 C 
ATOM      3  C   LIG    1       18.832  39.876 209.604  0.00  0.00    +0.018 C 
ATOM      4  C   LIG    1       19.985  40.005 210.655  0.00  0.00    +0.115 C 
ATOM      5  C   LIG    1       20.953  41.162 210.385  0.00  0.00    +0.247 C 
ATOM      6  O   LIG    1       20.782  42.368 210.417  0.00  0.00    -0.273 OA
ATOM      7  N   LIG    1       22.168  40.620 210.092  0.00  0.00    -0.215 N 
ATOM      8  C   LIG    1       22.107  39.253 210.147  0.00  0.00    +0.310 C 
ATOM      9  O   LIG    1       23.017  38.495 209.869  0.00  0.00    -0.252 OA
ATOM     10  N   LIG    1       20.880  38.863 210.543  0.00  0.00    -0.285 N 
ATOM     11  H   LIG    1       20.578  37.900 210.356  0.00  0.00    +0.151 HD
ATOM     12  C   LIG    1       19.429  40.012 212.102  0.00  0.00    +0.035 C 
ATOM     13  C   LIG    1       18.396  41.144 212.259  0.00  0.00    +0.003 C 
ATOM     14  C   LIG    1       17.260  41.015 211.237  0.00  0.00    +0.000 C 
ATOM     15  C   LIG    1       17.814  41.014 209.806  0.00  0.00    +0.006 C 
ENDBRANCH   1   7
BRANCH   1  16
ATOM     16  C   LIG    1       24.056  41.928 210.839  0.00  0.00    +0.238 C 
ATOM     17  N   LIG    1       24.456  43.255 210.865  0.00  0.00    -0.267 N 
ATOM     18  O   LIG    1       24.289  41.228 211.814  0.00  0.00    -0.274 OA
BRANCH  17  19
ATOM     19  C   LIG    1       24.347  44.103 209.737  0.00  0.00    +0.010 C 
ATOM     20  C   LIG    1       25.404  43.900 208.666  0.00  0.00    +0.051 C 
ATOM     21  C   LIG    1       25.440  45.177 207.797  0.00  0.00    +0.006 C 
ATOM     22  C   LIG    1       24.001  45.455 207.314  0.00  0.00    +0.004 C 
ATOM     23  C   LIG    1       23.179  45.971 208.516  0.00  0.00    +0.029 C 
ATOM     24  C   LIG    1       23.346  44.999 209.669  0.00  0.00    -0.008 C 
ENDBRANCH  17  19
BRANCH  17  25
ATOM     25  C   LIG    1       25.085  43.800 212.083  0.00  0.00    +0.187 C 
BRANCH  25  26
ATOM     26  C   LIG    1       26.574  43.826 211.803  0.00  0.00    +0.122 A 
ATOM     27  O   LIG    1       27.293  42.669 211.771  0.00  0.00    -0.466 OA
ATOM     28  C   LIG    1       28.582  43.001 211.512  0.00  0.00    +0.195 A 
ATOM     29  C   LIG    1       28.685  44.343 211.380  0.00  0.00    +0.041 A 
ATOM     30  C   LIG    1       27.403  44.869 211.568  0.00  0.00    +0.046 A 
ENDBRANCH  25  26
ENDBRANCH  17  25
ENDBRANCH   1  16
TORSDOF 5
ENDMDL
MODEL 9
REMARK VINA RESULT:      -7.0     26.733     30.120
REMARK  Name = ZINC000006087400
REMARK                            x       y       z     vdW  Elec       q    Type
REMARK                         _______ _______ _______ _____ _____    ______ ____
ROOT
ATOM      1  C   LIG    1       27.737  45.726 212.130  0.00  0.00    +0.214 C 
ENDROOT
BRANCH   1   7
ATOM      2  C   LIG    1       23.478  46.696 211.144  0.00  0.00    +0.010 C 
ATOM      3  C   LIG    1       23.812  46.663 209.636  0.00  0.00    +0.018 C 
ATOM      4  C   LIG    1       25.355  46.666 209.372  0.00  0.00    +0.115 C 
ATOM      5  C   LIG    1       26.135  45.636 210.197  0.00  0.00    +0.247 C 
ATOM      6  O   LIG    1       26.127  44.418 210.164  0.00  0.00    -0.273 OA
ATOM      7  N   LIG    1       26.943  46.323 211.051  0.00  0.00    -0.215 N 
ATOM      8  C   LIG    1       26.788  47.671 210.876  0.00  0.00    +0.310 C 
ATOM      9  O   LIG    1       27.328  48.536 211.541  0.00  0.00    -0.252 OA
ATOM     10  N   LIG    1       25.934  47.909 209.861  0.00  0.00    -0.285 N 
ATOM     11  H   LIG    1       25.486  48.829 209.791  0.00  0.00    +0.151 HD
ATOM     12  C   LIG    1       25.666  46.581 207.856  0.00  0.00    +0.035 C 
ATOM     13  C   LIG    1       24.994  45.333 207.254  0.00  0.00    +0.003 C 
ATOM     14  C   LIG    1       23.482  45.332 207.504  0.00  0.00    +0.000 C 
ATOM     15  C   LIG    1       23.178  45.409 209.005  0.00  0.00    +0.006 C 
ENDBRANCH   1   7
BRANCH   1  16
ATOM     16  C   LIG    1       29.103  45.362 211.546  0.00  0.00    +0.238 C 
ATOM     17  N   LIG    1       29.563  44.055 211.609  0.00  0.00    -0.267 N 
ATOM     18  O   LIG    1       29.810  46.205 211.013  0.00  0.00    -0.274 OA
BRANCH  17  19
ATOM     19  C   LIG    1       28.875  43.043 212.319  0.00  0.00    +0.010 C 
ATOM     20  C   LIG    1       28.814  43.231 213.824  0.00  0.00    +0.051 C 
ATOM     21  C   LIG    1       28.494  41.857 214.455  0.00  0.00    +0.006 C 
ATOM     22  C   LIG    1       27.226  41.311 213.767  0.00  0.00    +0.004 C 
ATOM     23  C   LIG    1       27.603  40.869 212.336  0.00  0.00    +0.029 C 
ATOM     24  C   LIG    1       28.323  42.014 211.650  0.00  0.00    -0.008 C 
ENDBRANCH  17  19
BRANCH  17  25
ATOM     25  C   LIG    1       30.849  43.707 210.977  0.00  0.00    +0.187 C 
BRANCH  25  26
ATOM     26  C   LIG    1       31.862  43.660 212.103  0.00  0.00    +0.122 A 
ATOM     27  O   LIG    1       32.479  44.798 212.528  0.00  0.00    -0.466 OA
ATOM     28  C   LIG    1       33.329  44.449 213.526  0.00  0.00    +0.195 A 
ATOM     29  C   LIG    1       33.257  43.115 213.735  0.00  0.00    +0.041 A 
ATOM     30  C   LIG    1       32.322  42.611 212.825  0.00  0.00    +0.046 A 
ENDBRANCH  25  26
ENDBRANCH  17  25
ENDBRANCH   1  16
TORSDOF 5
ENDMDL
