REMARK VINA RESULT:      -6.7      3.469      7.714
REMARK  Name = ZINC000000608130
REMARK                            x       y       z     vdW  Elec       q    Type
REMARK                         _______ _______ _______ _____ _____    ______ ____
ROOT
ATOM      1  C   LIG    1       19.834  47.988 183.103  0.00  0.00    +0.264 C 
ATOM      2  C   LIG    1       19.696  48.846 181.816  0.00  0.00    +0.145 C 
ATOM      3  C   LIG    1       20.849  49.822 181.518  0.00  0.00    +0.059 C 
ATOM      4  C   LIG    1       18.413  49.685 181.924  0.00  0.00    +0.059 C 
ATOM      5  O   LIG    1       19.537  47.975 180.678  0.00  0.00    -0.482 OA
ATOM      6  C   LIG    1       20.178  46.771 180.574  0.00  0.00    +0.132 A 
ATOM      7  C   LIG    1       20.088  46.105 179.349  0.00  0.00    +0.047 A 
ATOM      8  C   LIG    1       20.721  44.881 179.180  0.00  0.00    +0.015 A 
ATOM      9  C   LIG    1       21.450  44.313 180.234  0.00  0.00    +0.018 A 
ATOM     10  C   LIG    1       21.521  45.006 181.457  0.00  0.00    +0.149 A 
ATOM     11  O   LIG    1       22.247  44.458 182.501  0.00  0.00    -0.422 OA
ATOM     12  C   LIG    1       22.907  43.275 182.398  0.00  0.00    +0.337 A 
ATOM     13  O   LIG    1       23.530  42.892 183.376  0.00  0.00    -0.245 OA
ATOM     14  C   LIG    1       22.833  42.556 181.153  0.00  0.00    +0.092 A 
ATOM     15  C   LIG    1       22.130  43.051 180.103  0.00  0.00    +0.018 A 
ATOM     16  C   LIG    1       20.883  46.233 181.652  0.00  0.00    +0.081 A 
ATOM     17  C   LIG    1       20.985  46.953 182.987  0.00  0.00    +0.258 C 
ENDROOT
BRANCH   1  18
ATOM     18  O   LIG    1       20.072  48.868 184.261  0.00  0.00    -0.453 OA
BRANCH  18  19
ATOM     19  C   LIG    1       19.225  48.854 185.305  0.00  0.00    +0.310 C 
ATOM     20  O   LIG    1       18.563  47.845 185.545  0.00  0.00    -0.251 OA
BRANCH  19  21
ATOM     21  C   LIG    1       19.037  50.141 186.126  0.00  0.00    +0.094 C 
ATOM     22  C   LIG    1       18.054  49.924 187.295  0.00  0.00    +0.019 C 
BRANCH  21  24
ATOM     23  C   LIG    1       19.779  52.125 184.643  0.00  0.00    +0.004 C 
ATOM     24  C   LIG    1       18.609  51.316 185.223  0.00  0.00    +0.011 C 
ENDBRANCH  21  24
ENDBRANCH  19  21
ENDBRANCH  18  19
ENDBRANCH   1  18
BRANCH  17  25
ATOM     25  O   LIG    1       22.280  47.622 182.993  0.00  0.00    -0.453 OA
BRANCH  25  26
ATOM     26  C   LIG    1       23.057  47.624 184.074  0.00  0.00    +0.305 C 
ATOM     27  O   LIG    1       23.300  46.593 184.691  0.00  0.00    -0.251 OA
ATOM     28  C   LIG    1       23.614  48.955 184.535  0.00  0.00    +0.136 C 
ENDBRANCH  25  26
ENDBRANCH  17  25
TORSDOF 6
