REMARK VINA RESULT:      -8.1     27.668     31.547
REMARK  Name = ZINC000000603759
REMARK                            x       y       z     vdW  Elec       q    Type
REMARK                         _______ _______ _______ _____ _____    ______ ____
ROOT
ATOM      1  C   LIG    1       27.945  24.734 208.196  0.00  0.00    +0.139 A 
ATOM      2  C   LIG    1       28.603  23.682 207.503  0.00  0.00    +0.050 A 
ATOM      3  C   LIG    1       29.206  22.461 207.855  0.00  0.00    +0.015 A 
ATOM      4  C   LIG    1       29.754  21.705 206.837  0.00  0.00    +0.020 A 
ATOM      5  C   LIG    1       29.702  22.159 205.498  0.00  0.00    +0.113 A 
ATOM      6  N   LIG    1       29.138  23.302 205.157  0.00  0.00    -0.236 NA
ATOM      7  C   LIG    1       28.599  24.026 206.171  0.00  0.00    +0.159 A 
ATOM      8  N   LIG    1       27.954  25.228 206.100  0.00  0.00    -0.241 N 
ATOM      9  N   LIG    1       27.560  25.666 207.327  0.00  0.00    -0.165 NA
ENDROOT
BRANCH   1  14
ATOM     10  C   LIG    1       27.064  23.789 211.604  0.00  0.00    +0.128 A 
ATOM     11  C   LIG    1       27.300  24.953 212.347  0.00  0.00    +0.040 A 
ATOM     12  C   LIG    1       27.761  26.043 211.625  0.00  0.00    +0.125 A 
ATOM     13  N   LIG    1       27.958  25.961 210.319  0.00  0.00    -0.234 NA
ATOM     14  C   LIG    1       27.716  24.801 209.651  0.00  0.00    +0.183 A 
ATOM     15  N   LIG    1       27.267  23.718 210.310  0.00  0.00    -0.211 NA
BRANCH  11  16
ATOM     16  C   LIG    1       27.086  25.028 213.785  0.00  0.00    -0.010 A 
ATOM     17  C   LIG    1       25.804  25.033 214.336  0.00  0.00    +0.028 A 
ATOM     18  C   LIG    1       25.636  25.102 215.713  0.00  0.00    +0.111 A 
ATOM     19  N   LIG    1       26.677  25.166 216.542  0.00  0.00    -0.263 NA
ATOM     20  C   LIG    1       27.914  25.163 216.048  0.00  0.00    +0.111 A 
ATOM     21  C   LIG    1       28.154  25.094 214.682  0.00  0.00    +0.028 A 
ENDBRANCH  11  16
BRANCH  10  22
ATOM     22  N   LIG    1       26.592  22.639 212.142  0.00  0.00    -0.343 N 
ATOM     23  H   LIG    1       26.298  22.668 213.126  0.00  0.00    +0.144 HD
ATOM     24  H   LIG    1       26.020  22.084 211.491  0.00  0.00    +0.144 HD
ENDBRANCH  10  22
ENDBRANCH   1  14
BRANCH   8  25
ATOM     25  C   LIG    1       27.696  25.971 204.870  0.00  0.00    +0.183 C 
BRANCH  25  26
ATOM     26  C   LIG    1       26.186  26.011 204.674  0.00  0.00    +0.009 A 
ATOM     27  C   LIG    1       25.431  27.104 205.095  0.00  0.00    +0.128 A 
ATOM     28  F   LIG    1       26.040  28.154 205.701  0.00  0.00    -0.205 F 
ATOM     29  C   LIG    1       24.052  27.168 204.933  0.00  0.00    +0.039 A 
ATOM     30  C   LIG    1       23.397  26.098 204.331  0.00  0.00    +0.003 A 
ATOM     31  C   LIG    1       24.126  24.989 203.906  0.00  0.00    +0.000 A 
ATOM     32  C   LIG    1       25.509  24.943 204.076  0.00  0.00    +0.008 A 
ENDBRANCH  25  26
ENDBRANCH   8  25
TORSDOF 5
