MODEL 1
REMARK VINA RESULT:     -10.2      0.000      0.000
REMARK  Name = ZINC000049410302
REMARK                            x       y       z     vdW  Elec       q    Type
REMARK                         _______ _______ _______ _____ _____    ______ ____
ROOT
ATOM      1  C   LIG    1       27.788  16.708 191.028  0.00  0.00    +0.314 A 
ATOM      2  O   LIG    1       26.806  15.832 190.897  0.00  0.00    -0.328 OA
ATOM      3  N   LIG    1       26.429  15.821 189.640  0.00  0.00    -0.054 NA
ATOM      4  C   LIG    1       27.184  16.685 189.041  0.00  0.00    +0.224 A 
ATOM      5  N   LIG    1       28.058  17.266 189.895  0.00  0.00    -0.182 NA
ENDROOT
BRANCH   4   6
ATOM      6  C   LIG    1       27.094  16.991 187.609  0.00  0.00    +0.153 A 
ATOM      7  N   LIG    1       26.095  17.714 187.028  0.00  0.00    -0.126 NA
ATOM      8  N   LIG    1       26.344  17.782 185.746  0.00  0.00    -0.060 NA
ATOM      9  N   LIG    1       27.490  17.113 185.500  0.00  0.00    -0.219 N 
ATOM     10  C   LIG    1       27.966  16.615 186.645  0.00  0.00    +0.148 A 
BRANCH   9  11
ATOM     11  C   LIG    1       28.075  16.973 184.188  0.00  0.00    +0.068 A 
ATOM     12  C   LIG    1       29.455  17.114 184.030  0.00  0.00    +0.047 A 
ATOM     13  C   LIG    1       30.001  16.968 182.755  0.00  0.00    +0.043 A 
ATOM     14 CL   LIG    1       31.710  17.134 182.529  0.00  0.00    -0.083 Cl
ATOM     15  C   LIG    1       29.178  16.690 181.660  0.00  0.00    +0.020 A 
ATOM     16  C   LIG    1       27.802  16.557 181.834  0.00  0.00    +0.003 A 
ATOM     17  C   LIG    1       27.240  16.698 183.100  0.00  0.00    +0.028 A 
ENDBRANCH   9  11
ENDBRANCH   4   6
BRANCH   1  20
ATOM     18  N   LIG    1       28.171  15.978 193.305  0.00  0.00    -0.278 N 
ATOM     19  H   LIG    1       27.628  15.168 192.974  0.00  0.00    +0.155 HD
ATOM     20  C   LIG    1       28.409  16.935 192.332  0.00  0.00    +0.306 C 
ATOM     21  O   LIG    1       29.125  17.899 192.591  0.00  0.00    -0.265 OA
BRANCH  18  26
ATOM     22  C   LIG    1       29.917  15.988 198.745  0.00  0.00    +0.044 C 
ATOM     23  C   LIG    1       29.465  15.969 197.301  0.00  0.00    -0.050 A 
ATOM     24  C   LIG    1       28.271  16.587 196.930  0.00  0.00    +0.005 A 
ATOM     25  C   LIG    1       27.855  16.576 195.603  0.00  0.00    +0.023 A 
ATOM     26  C   LIG    1       28.639  15.942 194.639  0.00  0.00    +0.034 A 
ATOM     27  C   LIG    1       29.844  15.331 194.998  0.00  0.00    +0.023 A 
ATOM     28  C   LIG    1       30.249  15.346 196.328  0.00  0.00    +0.005 A 
ENDBRANCH  18  26
ENDBRANCH   1  20
TORSDOF 4
ENDMDL
MODEL 2
REMARK VINA RESULT:     -10.2      2.739      3.482
REMARK  Name = ZINC000049410302
REMARK                            x       y       z     vdW  Elec       q    Type
REMARK                         _______ _______ _______ _____ _____    ______ ____
ROOT
ATOM      1  C   LIG    1       26.299  15.606 190.164  0.00  0.00    +0.314 A 
ATOM      2  O   LIG    1       27.326  16.395 190.429  0.00  0.00    -0.328 OA
ATOM      3  N   LIG    1       27.731  16.936 189.305  0.00  0.00    -0.054 NA
ATOM      4  C   LIG    1       26.947  16.466 188.388  0.00  0.00    +0.224 A 
ATOM      5  N   LIG    1       26.027  15.618 188.902  0.00  0.00    -0.182 NA
ENDROOT
BRANCH   4   6
ATOM      6  C   LIG    1       27.053  16.816 186.968  0.00  0.00    +0.153 A 
ATOM      7  N   LIG    1       26.160  17.588 186.286  0.00  0.00    -0.126 NA
ATOM      8  N   LIG    1       26.576  17.684 185.050  0.00  0.00    -0.060 NA
ATOM      9  N   LIG    1       27.723  16.985 184.933  0.00  0.00    -0.219 N 
ATOM     10  C   LIG    1       28.032  16.439 186.112  0.00  0.00    +0.148 A 
BRANCH   9  11
ATOM     11  C   LIG    1       28.470  16.864 183.703  0.00  0.00    +0.068 A 
ATOM     12  C   LIG    1       29.835  17.156 183.694  0.00  0.00    +0.047 A 
ATOM     13  C   LIG    1       30.540  17.025 182.498  0.00  0.00    +0.043 A 
ATOM     14 CL   LIG    1       32.235  17.376 182.457  0.00  0.00    -0.083 Cl
ATOM     15  C   LIG    1       29.886  16.614 181.332  0.00  0.00    +0.020 A 
ATOM     16  C   LIG    1       28.521  16.331 181.357  0.00  0.00    +0.003 A 
ATOM     17  C   LIG    1       27.803  16.455 182.544  0.00  0.00    +0.028 A 
ENDBRANCH   9  11
ENDBRANCH   4   6
BRANCH   1  20
ATOM     18  N   LIG    1       25.290  15.585 192.365  0.00  0.00    -0.278 N 
ATOM     19  H   LIG    1       25.479  16.595 192.293  0.00  0.00    +0.155 HD
ATOM     20  C   LIG    1       25.639  14.863 191.237  0.00  0.00    +0.306 C 
ATOM     21  O   LIG    1       25.374  13.664 191.177  0.00  0.00    -0.265 OA
BRANCH  18  26
ATOM     22  C   LIG    1       22.506  13.777 197.016  0.00  0.00    +0.044 C 
ATOM     23  C   LIG    1       23.261  14.249 195.792  0.00  0.00    -0.050 A 
ATOM     24  C   LIG    1       22.603  14.383 194.569  0.00  0.00    +0.005 A 
ATOM     25  C   LIG    1       23.292  14.821 193.443  0.00  0.00    +0.023 A 
ATOM     26  C   LIG    1       24.648  15.129 193.541  0.00  0.00    +0.034 A 
ATOM     27  C   LIG    1       25.314  15.012 194.764  0.00  0.00    +0.023 A 
ATOM     28  C   LIG    1       24.616  14.571 195.883  0.00  0.00    +0.005 A 
ENDBRANCH  18  26
ENDBRANCH   1  20
TORSDOF 4
ENDMDL
MODEL 3
REMARK VINA RESULT:     -10.1     27.260     28.158
REMARK  Name = ZINC000049410302
REMARK                            x       y       z     vdW  Elec       q    Type
REMARK                         _______ _______ _______ _____ _____    ______ ____
ROOT
ATOM      1  C   LIG    1       24.381  42.422 186.495  0.00  0.00    +0.314 A 
ATOM      2  O   LIG    1       25.030  41.275 186.605  0.00  0.00    -0.328 OA
ATOM      3  N   LIG    1       25.892  41.194 185.620  0.00  0.00    -0.054 NA
ATOM      4  C   LIG    1       25.748  42.284 184.938  0.00  0.00    +0.224 A 
ATOM      5  N   LIG    1       24.795  43.086 185.467  0.00  0.00    -0.182 NA
ENDROOT
BRANCH   4   6
ATOM      6  C   LIG    1       26.527  42.602 183.737  0.00  0.00    +0.153 A 
ATOM      7  N   LIG    1       27.285  41.709 183.039  0.00  0.00    -0.126 NA
ATOM      8  N   LIG    1       27.832  42.345 182.037  0.00  0.00    -0.060 NA
ATOM      9  N   LIG    1       27.434  43.634 182.083  0.00  0.00    -0.219 N 
ATOM     10  C   LIG    1       26.626  43.810 183.132  0.00  0.00    +0.148 A 
BRANCH   9  11
ATOM     11  C   LIG    1       27.844  44.638 181.131  0.00  0.00    +0.068 A 
ATOM     12  C   LIG    1       28.821  45.569 181.489  0.00  0.00    +0.047 A 
ATOM     13  C   LIG    1       29.209  46.526 180.552  0.00  0.00    +0.043 A 
ATOM     14 CL   LIG    1       30.422  47.692 180.966  0.00  0.00    -0.083 Cl
ATOM     15  C   LIG    1       28.624  46.552 179.282  0.00  0.00    +0.020 A 
ATOM     16  C   LIG    1       27.647  45.618 178.942  0.00  0.00    +0.003 A 
ATOM     17  C   LIG    1       27.249  44.655 179.865  0.00  0.00    +0.028 A 
ENDBRANCH   9  11
ENDBRANCH   4   6
BRANCH   1  20
ATOM     18  N   LIG    1       23.699  43.716 188.425  0.00  0.00    -0.278 N 
ATOM     19  H   LIG    1       24.646  44.104 188.307  0.00  0.00    +0.155 HD
ATOM     20  C   LIG    1       23.347  42.784 187.463  0.00  0.00    +0.306 C 
ATOM     21  O   LIG    1       22.207  42.325 187.452  0.00  0.00    -0.265 OA
BRANCH  18  26
ATOM     22  C   LIG    1       20.443  46.010 192.521  0.00  0.00    +0.044 C 
ATOM     23  C   LIG    1       21.308  45.387 191.448  0.00  0.00    -0.050 A 
ATOM     24  C   LIG    1       21.155  45.764 190.113  0.00  0.00    +0.005 A 
ATOM     25  C   LIG    1       21.952  45.197 189.125  0.00  0.00    +0.023 A 
ATOM     26  C   LIG    1       22.909  44.245 189.473  0.00  0.00    +0.034 A 
ATOM     27  C   LIG    1       23.081  43.869 190.807  0.00  0.00    +0.023 A 
ATOM     28  C   LIG    1       22.277  44.441 191.788  0.00  0.00    +0.005 A 
ENDBRANCH  18  26
ENDBRANCH   1  20
TORSDOF 4
ENDMDL
MODEL 4
REMARK VINA RESULT:     -10.1     17.955     19.650
REMARK  Name = ZINC000049410302
REMARK                            x       y       z     vdW  Elec       q    Type
REMARK                         _______ _______ _______ _____ _____    ______ ____
ROOT
ATOM      1  C   LIG    1       27.803  29.655 204.352  0.00  0.00    +0.314 A 
ATOM      2  O   LIG    1       28.102  30.623 205.201  0.00  0.00    -0.328 OA
ATOM      3  N   LIG    1       28.109  31.759 204.544  0.00  0.00    -0.054 NA
ATOM      4  C   LIG    1       27.816  31.457 203.320  0.00  0.00    +0.224 A 
ATOM      5  N   LIG    1       27.616  30.128 203.165  0.00  0.00    -0.182 NA
ENDROOT
BRANCH   4   6
ATOM      6  C   LIG    1       27.718  32.443 202.239  0.00  0.00    +0.153 A 
ATOM      7  N   LIG    1       28.767  33.147 201.727  0.00  0.00    -0.126 NA
ATOM      8  N   LIG    1       28.304  33.927 200.785  0.00  0.00    -0.060 NA
ATOM      9  N   LIG    1       26.973  33.731 200.687  0.00  0.00    -0.219 N 
ATOM     10  C   LIG    1       26.593  32.815 201.583  0.00  0.00    +0.148 A 
BRANCH   9  11
ATOM     11  C   LIG    1       26.124  34.426 199.750  0.00  0.00    +0.068 A 
ATOM     12  C   LIG    1       26.585  34.680 198.457  0.00  0.00    +0.047 A 
ATOM     13  C   LIG    1       25.747  35.347 197.565  0.00  0.00    +0.043 A 
ATOM     14 CL   LIG    1       26.291  35.672 195.953  0.00  0.00    -0.083 Cl
ATOM     15  C   LIG    1       24.470  35.756 197.964  0.00  0.00    +0.020 A 
ATOM     16  C   LIG    1       24.026  35.499 199.260  0.00  0.00    +0.003 A 
ATOM     17  C   LIG    1       24.850  34.833 200.163  0.00  0.00    +0.028 A 
ENDBRANCH   9  11
ENDBRANCH   4   6
BRANCH   1  20
ATOM     18  N   LIG    1       28.706  27.408 204.344  0.00  0.00    -0.278 N 
ATOM     19  H   LIG    1       29.430  27.866 203.772  0.00  0.00    +0.155 HD
ATOM     20  C   LIG    1       27.725  28.268 204.808  0.00  0.00    +0.306 C 
ATOM     21  O   LIG    1       26.863  27.847 205.577  0.00  0.00    -0.265 OA
BRANCH  18  26
ATOM     22  C   LIG    1       29.583  21.891 205.542  0.00  0.00    +0.044 C 
ATOM     23  C   LIG    1       29.332  23.348 205.221  0.00  0.00    -0.050 A 
ATOM     24  C   LIG    1       30.131  24.341 205.788  0.00  0.00    +0.005 A 
ATOM     25  C   LIG    1       29.906  25.681 205.491  0.00  0.00    +0.023 A 
ATOM     26  C   LIG    1       28.875  26.031 204.619  0.00  0.00    +0.034 A 
ATOM     27  C   LIG    1       28.077  25.044 204.035  0.00  0.00    +0.023 A 
ATOM     28  C   LIG    1       28.309  23.707 204.341  0.00  0.00    +0.005 A 
ENDBRANCH  18  26
ENDBRANCH   1  20
TORSDOF 4
ENDMDL
MODEL 5
REMARK VINA RESULT:      -9.9     19.207     20.062
REMARK  Name = ZINC000049410302
REMARK                            x       y       z     vdW  Elec       q    Type
REMARK                         _______ _______ _______ _____ _____    ______ ____
ROOT
ATOM      1  C   LIG    1       27.347  29.696 204.483  0.00  0.00    +0.314 A 
ATOM      2  O   LIG    1       28.106  30.524 205.180  0.00  0.00    -0.328 OA
ATOM      3  N   LIG    1       28.291  31.611 204.468  0.00  0.00    -0.054 NA
ATOM      4  C   LIG    1       27.645  31.419 203.363  0.00  0.00    +0.224 A 
ATOM      5  N   LIG    1       27.035  30.211 203.341  0.00  0.00    -0.182 NA
ENDROOT
BRANCH   4   6
ATOM      6  C   LIG    1       27.589  32.397 202.272  0.00  0.00    +0.153 A 
ATOM      7  N   LIG    1       28.661  33.083 201.782  0.00  0.00    -0.126 NA
ATOM      8  N   LIG    1       28.235  33.861 200.822  0.00  0.00    -0.060 NA
ATOM      9  N   LIG    1       26.904  33.681 200.690  0.00  0.00    -0.219 N 
ATOM     10  C   LIG    1       26.488  32.779 201.582  0.00  0.00    +0.148 A 
BRANCH   9  11
ATOM     11  C   LIG    1       26.090  34.381 199.725  0.00  0.00    +0.068 A 
ATOM     12  C   LIG    1       26.630  35.457 199.018  0.00  0.00    +0.047 A 
ATOM     13  C   LIG    1       25.829  36.114 198.084  0.00  0.00    +0.043 A 
ATOM     14 CL   LIG    1       26.473  37.450 197.190  0.00  0.00    -0.083 Cl
ATOM     15  C   LIG    1       24.510  35.703 197.868  0.00  0.00    +0.020 A 
ATOM     16  C   LIG    1       23.985  34.629 198.586  0.00  0.00    +0.003 A 
ATOM     17  C   LIG    1       24.771  33.961 199.521  0.00  0.00    +0.028 A 
ENDBRANCH   9  11
ENDBRANCH   4   6
BRANCH   1  20
ATOM     18  N   LIG    1       27.997  27.648 205.600  0.00  0.00    -0.278 N 
ATOM     19  H   LIG    1       28.905  28.133 205.631  0.00  0.00    +0.155 HD
ATOM     20  C   LIG    1       26.977  28.392 205.032  0.00  0.00    +0.306 C 
ATOM     21  O   LIG    1       25.831  27.947 205.026  0.00  0.00    -0.265 OA
BRANCH  18  26
ATOM     22  C   LIG    1       27.761  22.573 208.215  0.00  0.00    +0.044 C 
ATOM     23  C   LIG    1       27.815  23.909 207.506  0.00  0.00    -0.050 A 
ATOM     24  C   LIG    1       27.802  25.096 208.240  0.00  0.00    +0.005 A 
ATOM     25  C   LIG    1       27.857  26.324 207.592  0.00  0.00    +0.023 A 
ATOM     26  C   LIG    1       27.927  26.368 206.200  0.00  0.00    +0.034 A 
ATOM     27  C   LIG    1       27.954  25.186 205.455  0.00  0.00    +0.023 A 
ATOM     28  C   LIG    1       27.897  23.962 206.114  0.00  0.00    +0.005 A 
ENDBRANCH  18  26
ENDBRANCH   1  20
TORSDOF 4
ENDMDL
MODEL 6
REMARK VINA RESULT:      -9.8      3.615     10.778
REMARK  Name = ZINC000049410302
REMARK                            x       y       z     vdW  Elec       q    Type
REMARK                         _______ _______ _______ _____ _____    ______ ____
ROOT
ATOM      1  C   LIG    1       27.393  16.968 189.174  0.00  0.00    +0.314 A 
ATOM      2  O   LIG    1       26.611  16.027 189.675  0.00  0.00    -0.328 OA
ATOM      3  N   LIG    1       26.902  15.884 190.946  0.00  0.00    -0.054 NA
ATOM      4  C   LIG    1       27.848  16.733 191.187  0.00  0.00    +0.224 A 
ATOM      5  N   LIG    1       28.183  17.438 190.081  0.00  0.00    -0.182 NA
ENDROOT
BRANCH   4   6
ATOM      6  C   LIG    1       28.475  16.904 192.502  0.00  0.00    +0.153 A 
ATOM      7  N   LIG    1       29.153  18.016 192.904  0.00  0.00    -0.126 NA
ATOM      8  N   LIG    1       29.570  17.809 194.126  0.00  0.00    -0.060 NA
ATOM      9  N   LIG    1       29.167  16.581 194.511  0.00  0.00    -0.219 N 
ATOM     10  C   LIG    1       28.488  16.005 193.515  0.00  0.00    +0.148 A 
BRANCH   9  11
ATOM     11  C   LIG    1       29.450  16.010 195.806  0.00  0.00    +0.068 A 
ATOM     12  C   LIG    1       29.229  16.768 196.957  0.00  0.00    +0.047 A 
ATOM     13  C   LIG    1       29.502  16.194 198.199  0.00  0.00    +0.043 A 
ATOM     14 CL   LIG    1       29.234  17.109 199.645  0.00  0.00    -0.083 Cl
ATOM     15  C   LIG    1       29.992  14.888 198.283  0.00  0.00    +0.020 A 
ATOM     16  C   LIG    1       30.212  14.146 197.124  0.00  0.00    +0.003 A 
ATOM     17  C   LIG    1       29.943  14.702 195.876  0.00  0.00    +0.028 A 
ENDBRANCH   9  11
ENDBRANCH   4   6
BRANCH   1  20
ATOM     18  N   LIG    1       27.943  16.522 186.858  0.00  0.00    -0.278 N 
ATOM     19  H   LIG    1       28.378  15.690 187.282  0.00  0.00    +0.155 HD
ATOM     20  C   LIG    1       27.292  17.342 187.764  0.00  0.00    +0.306 C 
ATOM     21  O   LIG    1       26.658  18.314 187.357  0.00  0.00    -0.265 OA
BRANCH  18  26
ATOM     22  C   LIG    1       28.024  16.917 181.159  0.00  0.00    +0.044 C 
ATOM     23  C   LIG    1       28.019  16.824 182.669  0.00  0.00    -0.050 A 
ATOM     24  C   LIG    1       26.832  16.557 183.353  0.00  0.00    +0.005 A 
ATOM     25  C   LIG    1       26.824  16.465 184.741  0.00  0.00    +0.023 A 
ATOM     26  C   LIG    1       28.012  16.642 185.450  0.00  0.00    +0.034 A 
ATOM     27  C   LIG    1       29.208  16.897 184.775  0.00  0.00    +0.023 A 
ATOM     28  C   LIG    1       29.204  16.989 183.387  0.00  0.00    +0.005 A 
ENDBRANCH  18  26
ENDBRANCH   1  20
TORSDOF 4
ENDMDL
MODEL 7
REMARK VINA RESULT:      -9.7     27.493     29.681
REMARK  Name = ZINC000049410302
REMARK                            x       y       z     vdW  Elec       q    Type
REMARK                         _______ _______ _______ _____ _____    ______ ____
ROOT
ATOM      1  C   LIG    1       26.569  42.687 184.073  0.00  0.00    +0.314 A 
ATOM      2  O   LIG    1       26.305  41.397 184.190  0.00  0.00    -0.328 OA
ATOM      3  N   LIG    1       25.750  41.195 185.361  0.00  0.00    -0.054 NA
ATOM      4  C   LIG    1       25.691  42.358 185.926  0.00  0.00    +0.224 A 
ATOM      5  N   LIG    1       26.204  43.327 185.133  0.00  0.00    -0.182 NA
ENDROOT
BRANCH   4   6
ATOM      6  C   LIG    1       25.136  42.587 187.264  0.00  0.00    +0.153 A 
ATOM      7  N   LIG    1       25.616  42.032 188.413  0.00  0.00    -0.126 NA
ATOM      8  N   LIG    1       24.876  42.458 189.403  0.00  0.00    -0.060 NA
ATOM      9  N   LIG    1       23.929  43.280 188.902  0.00  0.00    -0.219 N 
ATOM     10  C   LIG    1       24.076  43.369 187.577  0.00  0.00    +0.148 A 
BRANCH   9  11
ATOM     11  C   LIG    1       22.927  43.937 189.706  0.00  0.00    +0.068 A 
ATOM     12  C   LIG    1       22.108  44.909 189.128  0.00  0.00    +0.047 A 
ATOM     13  C   LIG    1       21.140  45.527 189.920  0.00  0.00    +0.043 A 
ATOM     14 CL   LIG    1       20.107  46.733 189.230  0.00  0.00    -0.083 Cl
ATOM     15  C   LIG    1       21.001  45.179 191.268  0.00  0.00    +0.020 A 
ATOM     16  C   LIG    1       21.830  44.210 191.830  0.00  0.00    +0.003 A 
ATOM     17  C   LIG    1       22.800  43.583 191.054  0.00  0.00    +0.028 A 
ENDBRANCH   9  11
ENDBRANCH   4   6
BRANCH   1  20
ATOM     18  N   LIG    1       27.441  44.570 182.824  0.00  0.00    -0.278 N 
ATOM     19  H   LIG    1       27.208  45.061 183.699  0.00  0.00    +0.155 HD
ATOM     20  C   LIG    1       27.197  43.208 182.859  0.00  0.00    +0.306 C 
ATOM     21  O   LIG    1       27.524  42.507 181.903  0.00  0.00    -0.265 OA
BRANCH  18  26
ATOM     22  C   LIG    1       29.715  47.536 178.502  0.00  0.00    +0.044 C 
ATOM     23  C   LIG    1       29.119  46.764 179.659  0.00  0.00    -0.050 A 
ATOM     24  C   LIG    1       28.023  45.926 179.456  0.00  0.00    +0.005 A 
ATOM     25  C   LIG    1       27.477  45.211 180.516  0.00  0.00    +0.023 A 
ATOM     26  C   LIG    1       28.031  45.335 181.790  0.00  0.00    +0.034 A 
ATOM     27  C   LIG    1       29.137  46.161 182.003  0.00  0.00    +0.023 A 
ATOM     28  C   LIG    1       29.675  46.873 180.936  0.00  0.00    +0.005 A 
ENDBRANCH  18  26
ENDBRANCH   1  20
TORSDOF 4
ENDMDL
MODEL 8
REMARK VINA RESULT:      -9.2     18.604     19.628
REMARK  Name = ZINC000049410302
REMARK                            x       y       z     vdW  Elec       q    Type
REMARK                         _______ _______ _______ _____ _____    ______ ____
ROOT
ATOM      1  C   LIG    1       27.817  27.120 204.874  0.00  0.00    +0.314 A 
ATOM      2  O   LIG    1       26.836  27.547 205.651  0.00  0.00    -0.328 OA
ATOM      3  N   LIG    1       26.676  28.832 205.442  0.00  0.00    -0.054 NA
ATOM      4  C   LIG    1       27.556  29.155 204.550  0.00  0.00    +0.224 A 
ATOM      5  N   LIG    1       28.298  28.089 204.169  0.00  0.00    -0.182 NA
ENDROOT
BRANCH   4   6
ATOM      6  C   LIG    1       27.724  30.513 204.024  0.00  0.00    +0.153 A 
ATOM      7  N   LIG    1       28.324  31.540 204.691  0.00  0.00    -0.126 NA
ATOM      8  N   LIG    1       28.290  32.593 203.918  0.00  0.00    -0.060 NA
ATOM      9  N   LIG    1       27.676  32.255 202.765  0.00  0.00    -0.219 N 
ATOM     10  C   LIG    1       27.317  30.969 202.815  0.00  0.00    +0.148 A 
BRANCH   9  11
ATOM     11  C   LIG    1       27.455  33.171 201.672  0.00  0.00    +0.068 A 
ATOM     12  C   LIG    1       26.150  33.524 201.321  0.00  0.00    +0.047 A 
ATOM     13  C   LIG    1       25.958  34.416 200.267  0.00  0.00    +0.043 A 
ATOM     14 CL   LIG    1       24.351  34.875 199.812  0.00  0.00    -0.083 Cl
ATOM     15  C   LIG    1       27.054  34.940 199.575  0.00  0.00    +0.020 A 
ATOM     16  C   LIG    1       28.350  34.574 199.934  0.00  0.00    +0.003 A 
ATOM     17  C   LIG    1       28.560  33.685 200.985  0.00  0.00    +0.028 A 
ENDBRANCH   9  11
ENDBRANCH   4   6
BRANCH   1  20
ATOM     18  N   LIG    1       28.591  25.198 206.128  0.00  0.00    -0.278 N 
ATOM     19  H   LIG    1       28.475  25.855 206.912  0.00  0.00    +0.155 HD
ATOM     20  C   LIG    1       28.222  25.715 204.898  0.00  0.00    +0.306 C 
ATOM     21  O   LIG    1       28.232  24.989 203.906  0.00  0.00    -0.265 OA
BRANCH  18  26
ATOM     22  C   LIG    1       30.186  19.901 207.560  0.00  0.00    +0.044 C 
ATOM     23  C   LIG    1       29.773  21.302 207.164  0.00  0.00    -0.050 A 
ATOM     24  C   LIG    1       28.609  21.867 207.686  0.00  0.00    +0.005 A 
ATOM     25  C   LIG    1       28.230  23.157 207.328  0.00  0.00    +0.023 A 
ATOM     26  C   LIG    1       29.021  23.887 206.441  0.00  0.00    +0.034 A 
ATOM     27  C   LIG    1       30.195  23.336 205.922  0.00  0.00    +0.023 A 
ATOM     28  C   LIG    1       30.564  22.045 206.286  0.00  0.00    +0.005 A 
ENDBRANCH  18  26
ENDBRANCH   1  20
TORSDOF 4
ENDMDL
MODEL 9
REMARK VINA RESULT:      -9.1      7.309      8.287
REMARK  Name = ZINC000049410302
REMARK                            x       y       z     vdW  Elec       q    Type
REMARK                         _______ _______ _______ _____ _____    ______ ____
ROOT
ATOM      1  C   LIG    1       34.944  19.573 187.207  0.00  0.00    +0.314 A 
ATOM      2  O   LIG    1       34.963  20.582 186.354  0.00  0.00    -0.328 OA
ATOM      3  N   LIG    1       34.086  20.338 185.409  0.00  0.00    -0.054 NA
ATOM      4  C   LIG    1       33.559  19.194 185.707  0.00  0.00    +0.224 A 
ATOM      5  N   LIG    1       34.083  18.682 186.844  0.00  0.00    -0.182 NA
ENDROOT
BRANCH   4   6
ATOM      6  C   LIG    1       32.521  18.541 184.902  0.00  0.00    +0.153 A 
ATOM      7  N   LIG    1       32.732  17.939 183.697  0.00  0.00    -0.126 NA
ATOM      8  N   LIG    1       31.586  17.471 183.278  0.00  0.00    -0.060 NA
ATOM      9  N   LIG    1       30.645  17.764 184.199  0.00  0.00    -0.219 N 
ATOM     10  C   LIG    1       31.208  18.429 185.212  0.00  0.00    +0.148 A 
BRANCH   9  11
ATOM     11  C   LIG    1       29.253  17.403 184.071  0.00  0.00    +0.068 A 
ATOM     12  C   LIG    1       28.511  17.099 185.215  0.00  0.00    +0.047 A 
ATOM     13  C   LIG    1       27.167  16.760 185.070  0.00  0.00    +0.043 A 
ATOM     14 CL   LIG    1       26.221  16.382 186.471  0.00  0.00    -0.083 Cl
ATOM     15  C   LIG    1       26.578  16.722 183.802  0.00  0.00    +0.020 A 
ATOM     16  C   LIG    1       27.334  17.023 182.671  0.00  0.00    +0.003 A 
ATOM     17  C   LIG    1       28.678  17.365 182.797  0.00  0.00    +0.028 A 
ENDBRANCH   9  11
ENDBRANCH   4   6
BRANCH   1  20
ATOM     18  N   LIG    1       36.365  20.792 188.742  0.00  0.00    -0.278 N 
ATOM     19  H   LIG    1       36.023  21.588 188.186  0.00  0.00    +0.155 HD
ATOM     20  C   LIG    1       35.829  19.571 188.372  0.00  0.00    +0.306 C 
ATOM     21  O   LIG    1       36.096  18.566 189.028  0.00  0.00    -0.265 OA
BRANCH  18  26
ATOM     22  C   LIG    1       39.731  22.046 193.187  0.00  0.00    +0.044 C 
ATOM     23  C   LIG    1       38.854  21.703 192.002  0.00  0.00    -0.050 A 
ATOM     24  C   LIG    1       37.465  21.707 192.130  0.00  0.00    +0.005 A 
ATOM     25  C   LIG    1       36.656  21.398 191.042  0.00  0.00    +0.023 A 
ATOM     26  C   LIG    1       37.241  21.082 189.815  0.00  0.00    +0.034 A 
ATOM     27  C   LIG    1       38.631  21.088 189.672  0.00  0.00    +0.023 A 
ATOM     28  C   LIG    1       39.430  21.397 190.767  0.00  0.00    +0.005 A 
ENDBRANCH  18  26
ENDBRANCH   1  20
TORSDOF 4
ENDMDL
