REMARK VINA RESULT:      -7.8      0.000      0.000
REMARK  Name = ZINC000000608130
REMARK                            x       y       z     vdW  Elec       q    Type
REMARK                         _______ _______ _______ _____ _____    ______ ____
ROOT
ATOM      1  C   LIG    1       23.545  43.114 182.770  0.00  0.00    +0.264 C 
ATOM      2  C   LIG    1       24.981  42.532 182.671  0.00  0.00    +0.145 C 
ATOM      3  C   LIG    1       26.111  43.543 182.403  0.00  0.00    +0.059 C 
ATOM      4  C   LIG    1       25.015  41.506 181.528  0.00  0.00    +0.059 C 
ATOM      5  O   LIG    1       25.291  41.821 183.887  0.00  0.00    -0.482 OA
ATOM      6  C   LIG    1       24.855  42.234 185.116  0.00  0.00    +0.132 A 
ATOM      7  C   LIG    1       25.371  41.569 186.232  0.00  0.00    +0.047 A 
ATOM      8  C   LIG    1       24.971  41.945 187.506  0.00  0.00    +0.015 A 
ATOM      9  C   LIG    1       24.052  42.990 187.677  0.00  0.00    +0.018 A 
ATOM     10  C   LIG    1       23.548  43.639 186.534  0.00  0.00    +0.149 A 
ATOM     11  O   LIG    1       22.647  44.679 186.693  0.00  0.00    -0.422 OA
ATOM     12  C   LIG    1       22.228  45.113 187.910  0.00  0.00    +0.337 A 
ATOM     13  O   LIG    1       21.444  46.048 187.936  0.00  0.00    -0.245 OA
ATOM     14  C   LIG    1       22.732  44.448 189.083  0.00  0.00    +0.092 A 
ATOM     15  C   LIG    1       23.613  43.421 188.978  0.00  0.00    +0.018 A 
ATOM     16  C   LIG    1       23.929  43.270 185.242  0.00  0.00    +0.081 A 
ATOM     17  C   LIG    1       23.365  43.998 184.033  0.00  0.00    +0.258 C 
ENDROOT
BRANCH   1  18
ATOM     18  O   LIG    1       23.248  43.905 181.563  0.00  0.00    -0.453 OA
BRANCH  18  19
ATOM     19  C   LIG    1       22.025  43.855 181.006  0.00  0.00    +0.310 C 
ATOM     20  O   LIG    1       21.136  44.604 181.407  0.00  0.00    -0.251 OA
BRANCH  19  21
ATOM     21  C   LIG    1       21.741  42.788 179.936  0.00  0.00    +0.094 C 
ATOM     22  C   LIG    1       20.645  43.253 178.955  0.00  0.00    +0.019 C 
BRANCH  21  24
ATOM     23  C   LIG    1       21.677  40.214 179.686  0.00  0.00    +0.004 C 
ATOM     24  C   LIG    1       21.397  41.431 180.583  0.00  0.00    +0.011 C 
ENDBRANCH  21  24
ENDBRANCH  19  21
ENDBRANCH  18  19
ENDBRANCH   1  18
BRANCH  17  25
ATOM     25  O   LIG    1       24.127  45.234 183.908  0.00  0.00    -0.453 OA
BRANCH  25  26
ATOM     26  C   LIG    1       23.523  46.419 183.834  0.00  0.00    +0.305 C 
ATOM     27  O   LIG    1       24.163  47.456 183.701  0.00  0.00    -0.251 OA
ATOM     28  C   LIG    1       22.013  46.446 183.946  0.00  0.00    +0.136 C 
ENDBRANCH  25  26
ENDBRANCH  17  25
TORSDOF 6
