REMARK VINA RESULT:      -7.1     28.842     30.713
REMARK  Name = ZINC000000622958
REMARK                            x       y       z     vdW  Elec       q    Type
REMARK                         _______ _______ _______ _____ _____    ______ ____
ROOT
ATOM      1  C   LIG    1       31.047  16.817 198.202  0.00  0.00    +0.271 C 
ATOM      2  N   LIG    1       29.808  17.399 197.752  0.00  0.00    -0.157 N 
ATOM      3  C   LIG    1       29.362  18.328 198.568  0.00  0.00    +0.250 C 
ATOM      4  C   LIG    1       28.079  19.124 198.377  0.00  0.00    +0.124 C 
ATOM      5  C   LIG    1       28.479  20.573 198.014  0.00  0.00    +0.012 C 
ATOM      6  C   LIG    1       28.892  21.333 199.289  0.00  0.00    +0.004 C 
ATOM      7  C   LIG    1       30.206  20.877 199.958  0.00  0.00    +0.045 C 
ATOM      8  C   LIG    1       30.013  19.501 200.627  0.00  0.00    +0.236 C 
ATOM      9  N   LIG    1       30.192  18.499 199.566  0.00  0.00    -0.258 N 
ATOM     10  C   LIG    1       31.408  17.663 199.449  0.00  0.00    +0.323 C 
ENDROOT
BRANCH   1  11
ATOM     11  C   LIG    1       32.130  16.900 197.121  0.00  0.00    +0.034 A 
ATOM     12  C   LIG    1       32.795  18.120 196.900  0.00  0.00    +0.060 A 
ATOM     13  C   LIG    1       33.766  18.183 195.915  0.00  0.00    +0.167 A 
ATOM     14  O   LIG    1       34.495  19.263 195.564  0.00  0.00    -0.453 OA
ATOM     15  C   LIG    1       35.388  18.813 194.465  0.00  0.00    +0.466 C 
ATOM     16  O   LIG    1       35.064  17.381 194.265  0.00  0.00    -0.453 OA
ATOM     17  C   LIG    1       34.095  17.088 195.159  0.00  0.00    +0.166 A 
ATOM     18  C   LIG    1       33.464  15.869 195.350  0.00  0.00    +0.050 A 
ATOM     19  C   LIG    1       32.478  15.780 196.336  0.00  0.00    +0.014 A 
ENDBRANCH   1  11
BRANCH   2  20
ATOM     20  C   LIG    1       29.194  17.040 196.523  0.00  0.00    +0.124 A 
ATOM     21  C   LIG    1       28.342  15.937 196.475  0.00  0.00    +0.050 A 
ATOM     22  C   LIG    1       27.735  15.602 195.267  0.00  0.00    +0.024 A 
ATOM     23  C   LIG    1       27.983  16.369 194.124  0.00  0.00    +0.041 A 
ATOM     24 CL   LIG    1       27.225  15.951 192.627  0.00  0.00    -0.084 Cl
ATOM     25  C   LIG    1       28.839  17.474 194.185  0.00  0.00    +0.024 A 
ATOM     26  C   LIG    1       29.449  17.813 195.389  0.00  0.00    +0.050 A 
ENDBRANCH   2  20
BRANCH   1  27
ATOM     27  O   LIG    1       30.738  15.482 198.582  0.00  0.00    -0.347 OA
ATOM     28  H   LIG    1       31.365  14.894 198.135  0.00  0.00    +0.215 HD
ENDBRANCH   1  27
TORSDOF 3
