REMARK VINA RESULT:      -8.4      0.000      0.000
REMARK  Name = ZINC000049420917
REMARK                            x       y       z     vdW  Elec       q    Type
REMARK                         _______ _______ _______ _____ _____    ______ ____
ROOT
ATOM      1  N   LIG    1       27.938  24.508 208.784  0.00  0.00    -0.205 N 
ATOM      2  C   LIG    1       28.514  23.287 208.354  0.00  0.00    +0.160 A 
ATOM      3  N   LIG    1       28.213  22.180 209.048  0.00  0.00    -0.238 NA
ATOM      4  C   LIG    1       28.743  21.016 208.678  0.00  0.00    +0.113 A 
ATOM      5  C   LIG    1       29.598  20.913 207.582  0.00  0.00    +0.022 A 
ATOM      6  C   LIG    1       29.913  22.052 206.849  0.00  0.00    +0.034 A 
ATOM      7  C   LIG    1       29.363  23.261 207.256  0.00  0.00    +0.149 A 
ATOM      8  S   LIG    1       29.571  24.806 206.437  0.00  0.00    +0.082 S 
ATOM      9  O   LIG    1       30.539  25.575 207.123  0.00  0.00    -0.150 OA
ATOM     10  O   LIG    1       29.802  24.574 205.058  0.00  0.00    -0.150 OA
ATOM     11  N   LIG    1       28.105  25.514 206.626  0.00  0.00    -0.150 N 
ATOM     12  C   LIG    1       27.779  25.619 207.943  0.00  0.00    +0.334 C 
ATOM     13  O   LIG    1       27.335  26.676 208.382  0.00  0.00    -0.250 OA
ENDROOT
BRANCH   1  18
ATOM     14  C   LIG    1       26.344  25.040 214.243  0.00  0.00    +0.044 C 
ATOM     15  C   LIG    1       26.763  24.908 212.795  0.00  0.00    -0.050 A 
ATOM     16  C   LIG    1       28.093  25.121 212.428  0.00  0.00    +0.005 A 
ATOM     17  C   LIG    1       28.488  24.990 211.101  0.00  0.00    +0.024 A 
ATOM     18  C   LIG    1       27.539  24.640 210.142  0.00  0.00    +0.044 A 
ATOM     19  C   LIG    1       26.208  24.418 210.492  0.00  0.00    +0.024 A 
ATOM     20  C   LIG    1       25.825  24.552 211.823  0.00  0.00    +0.005 A 
ENDBRANCH   1  18
BRANCH  11  21
ATOM     21  C   LIG    1       27.883  26.653 205.739  0.00  0.00    +0.171 C 
BRANCH  21  22
ATOM     22  C   LIG    1       26.491  26.411 205.188  0.00  0.00    -0.028 A 
ATOM     23  C   LIG    1       26.217  25.238 204.476  0.00  0.00    +0.008 A 
ATOM     24  C   LIG    1       24.940  25.006 203.972  0.00  0.00    +0.038 A 
ATOM     25  C   LIG    1       23.952  25.955 204.195  0.00  0.00    +0.123 A 
ATOM     26  F   LIG    1       22.709  25.733 203.706  0.00  0.00    -0.205 F 
ATOM     27  C   LIG    1       24.196  27.123 204.904  0.00  0.00    +0.038 A 
ATOM     28  C   LIG    1       25.476  27.348 205.404  0.00  0.00    +0.008 A 
ENDBRANCH  21  22
ENDBRANCH  11  21
TORSDOF 3
