REMARK VINA RESULT:      -6.3     34.282     36.555
REMARK  Name = ZINC000000622877
REMARK                            x       y       z     vdW  Elec       q    Type
REMARK                         _______ _______ _______ _____ _____    ______ ____
ROOT
ATOM      1  O   LIG    1       19.360  47.621 184.742  0.00  0.00    -0.274 OA
ATOM      2  C   LIG    1       20.441  48.127 185.001  0.00  0.00    +0.235 C 
ATOM      3  N   LIG    1       20.501  49.255 185.761  0.00  0.00    -0.219 N 
ATOM      4  H   LIG    1       21.402  49.589 186.141  0.00  0.00    +0.176 HD
ENDROOT
BRANCH   3   5
ATOM      5  N   LIG    1       19.285  49.892 186.300  0.00  0.00    -0.217 N 
ATOM      6  C   LIG    1       18.525  50.817 185.565  0.00  0.00    +0.079 A 
ATOM      7  C   LIG    1       17.371  51.105 186.219  0.00  0.00    +0.078 A 
ATOM      8  S   LIG    1       17.224  50.288 187.742  0.00  0.00    -0.033 S 
ATOM      9  C   LIG    1       18.759  49.510 187.513  0.00  0.00    +0.308 A 
ATOM     10  O   LIG    1       19.335  48.736 188.308  0.00  0.00    -0.258 OA
BRANCH   6  11
ATOM     11  C   LIG    1       18.981  51.351 184.290  0.00  0.00    +0.001 A 
ATOM     12  C   LIG    1       18.538  50.803 183.078  0.00  0.00    +0.010 A 
ATOM     13  C   LIG    1       18.984  51.311 181.863  0.00  0.00    +0.001 A 
ATOM     14  C   LIG    1       19.879  52.375 181.838  0.00  0.00    +0.000 A 
ATOM     15  C   LIG    1       20.326  52.931 183.033  0.00  0.00    +0.001 A 
ATOM     16  C   LIG    1       19.881  52.423 184.247  0.00  0.00    +0.010 A 
ENDBRANCH   6  11
ENDBRANCH   3   5
BRANCH   2  17
ATOM     17  C   LIG    1       21.745  47.532 184.506  0.00  0.00    +0.132 C 
BRANCH  17  18
ATOM     18  C   LIG    1       22.126  48.237 183.211  0.00  0.00    -0.039 A 
ATOM     19  C   LIG    1       22.013  47.577 181.987  0.00  0.00    +0.005 A 
ATOM     20  C   LIG    1       22.345  48.230 180.805  0.00  0.00    +0.015 A 
ATOM     21  C   LIG    1       22.793  49.548 180.835  0.00  0.00    +0.018 A 
ATOM     22 BR   LIG    1       23.241  50.435 179.225  0.00  0.00    -0.050 Br
ATOM     23  C   LIG    1       22.910  50.209 182.054  0.00  0.00    +0.015 A 
ATOM     24  C   LIG    1       22.581  49.556 183.237  0.00  0.00    +0.005 A 
ENDBRANCH  17  18
ENDBRANCH   2  17
TORSDOF 4
