REMARK VINA RESULT:      -7.7     29.354     33.946
REMARK  Name = ZINC000049421769
REMARK                            x       y       z     vdW  Elec       q    Type
REMARK                         _______ _______ _______ _____ _____    ______ ____
ROOT
ATOM      1  C   LIG    1       26.992  28.357 205.759  0.00  0.00    +0.088 C 
ATOM      2  C   LIG    1       27.303  26.881 205.643  0.00  0.00    +0.135 A 
ATOM      3  N   LIG    1       27.723  26.049 206.623  0.00  0.00    -0.276 N 
ATOM      4  C   LIG    1       28.010  26.229 208.024  0.00  0.00    +0.075 A 
ATOM      5  C   LIG    1       27.937  27.470 208.678  0.00  0.00    +0.028 A 
ATOM      6  C   LIG    1       28.214  27.541 210.036  0.00  0.00    +0.002 A 
ATOM      7  C   LIG    1       28.563  26.389 210.744  0.00  0.00    +0.002 A 
ATOM      8  C   LIG    1       28.643  25.166 210.094  0.00  0.00    +0.030 A 
ATOM      9  C   LIG    1       28.378  25.064 208.724  0.00  0.00    +0.089 A 
ATOM     10  N   LIG    1       28.494  23.819 208.111  0.00  0.00    -0.235 NA
ATOM     11  C   LIG    1       28.244  23.712 206.846  0.00  0.00    +0.143 A 
ATOM     12  C   LIG    1       27.847  24.842 206.045  0.00  0.00    +0.194 A 
ATOM     13  N   LIG    1       27.532  24.922 204.776  0.00  0.00    -0.127 NA
ATOM     14  N   LIG    1       27.191  26.211 204.538  0.00  0.00    -0.134 NA
ENDROOT
BRANCH  11  15
ATOM     15  S   LIG    1       28.384  22.146 206.096  0.00  0.00    -0.093 S 
BRANCH  15  16
ATOM     16  C   LIG    1       30.202  21.897 205.966  0.00  0.00    +0.172 C 
BRANCH  16  17
ATOM     17  C   LIG    1       30.454  20.449 206.343  0.00  0.00    +0.227 C 
ATOM     18  N   LIG    1       29.435  19.561 206.115  0.00  0.00    -0.284 N 
ATOM     19  H   LIG    1       28.536  19.958 205.813  0.00  0.00    +0.155 HD
ATOM     20  O   LIG    1       31.491  20.076 206.847  0.00  0.00    -0.275 OA
BRANCH  18  21
ATOM     21  C   LIG    1       29.454  18.189 206.456  0.00  0.00    +0.039 A 
ATOM     22  C   LIG    1       28.895  17.809 207.686  0.00  0.00    -0.029 A 
ATOM     23  C   LIG    1       28.326  18.830 208.658  0.00  0.00    +0.045 C 
ATOM     24  C   LIG    1       28.888  16.459 208.027  0.00  0.00    +0.005 A 
ATOM     25  C   LIG    1       29.423  15.508 207.162  0.00  0.00    +0.001 A 
ATOM     26  C   LIG    1       29.971  15.898 205.943  0.00  0.00    +0.005 A 
ATOM     27  C   LIG    1       29.989  17.239 205.570  0.00  0.00    -0.029 A 
ATOM     28  C   LIG    1       30.587  17.624 204.228  0.00  0.00    +0.045 C 
ENDBRANCH  18  21
ENDBRANCH  16  17
ENDBRANCH  15  16
ENDBRANCH  11  15
TORSDOF 4
