REMARK VINA RESULT:      -7.6     26.973     29.337
REMARK  Name = ZINC000000622956
REMARK                            x       y       z     vdW  Elec       q    Type
REMARK                         _______ _______ _______ _____ _____    ______ ____
ROOT
ATOM      1  C   LIG    1       22.558  41.525 212.039  0.00  0.00    +0.271 C 
ATOM      2  N   LIG    1       22.401  41.587 210.606  0.00  0.00    -0.157 N 
ATOM      3  C   LIG    1       21.621  40.633 210.148  0.00  0.00    +0.250 C 
ATOM      4  C   LIG    1       21.227  40.448 208.690  0.00  0.00    +0.124 C 
ATOM      5  C   LIG    1       19.732  40.818 208.559  0.00  0.00    +0.012 C 
ATOM      6  C   LIG    1       18.860  39.651 209.060  0.00  0.00    +0.004 C 
ATOM      7  C   LIG    1       18.912  39.367 210.576  0.00  0.00    +0.045 C 
ATOM      8  C   LIG    1       20.270  38.745 210.954  0.00  0.00    +0.236 C 
ATOM      9  N   LIG    1       21.203  39.867 211.122  0.00  0.00    -0.258 N 
ATOM     10  C   LIG    1       21.688  40.311 212.446  0.00  0.00    +0.323 C 
ENDROOT
BRANCH   1  11
ATOM     11  C   LIG    1       24.024  41.317 212.438  0.00  0.00    +0.034 A 
ATOM     12  C   LIG    1       24.823  42.392 212.869  0.00  0.00    +0.060 A 
ATOM     13  C   LIG    1       26.139  42.141 213.227  0.00  0.00    +0.167 A 
ATOM     14  O   LIG    1       27.048  43.040 213.660  0.00  0.00    -0.453 OA
ATOM     15  C   LIG    1       28.292  42.273 213.922  0.00  0.00    +0.466 C 
ATOM     16  O   LIG    1       27.961  40.871 213.570  0.00  0.00    -0.453 OA
ATOM     17  C   LIG    1       26.671  40.879 213.176  0.00  0.00    +0.166 A 
ATOM     18  C   LIG    1       25.912  39.796 212.764  0.00  0.00    +0.050 A 
ATOM     19  C   LIG    1       24.583  40.021 212.398  0.00  0.00    +0.014 A 
ENDBRANCH   1  11
BRANCH   2  20
ATOM     20  C   LIG    1       22.954  42.618 209.808  0.00  0.00    +0.124 A 
ATOM     21  C   LIG    1       24.103  42.342 209.068  0.00  0.00    +0.050 A 
ATOM     22  C   LIG    1       24.658  43.348 208.281  0.00  0.00    +0.024 A 
ATOM     23  C   LIG    1       24.063  44.613 208.244  0.00  0.00    +0.041 A 
ATOM     24 CL   LIG    1       24.756  45.860 207.266  0.00  0.00    -0.084 Cl
ATOM     25  C   LIG    1       22.912  44.876 208.994  0.00  0.00    +0.024 A 
ATOM     26  C   LIG    1       22.352  43.875 209.783  0.00  0.00    +0.050 A 
ENDBRANCH   2  20
BRANCH   1  27
ATOM     27  O   LIG    1       22.022  42.734 212.559  0.00  0.00    -0.347 OA
ATOM     28  H   LIG    1       22.422  42.886 213.429  0.00  0.00    +0.215 HD
ENDBRANCH   1  27
TORSDOF 3
