REMARK VINA RESULT:      -6.9      6.668      8.216
REMARK  Name = ZINC000078751741
REMARK                            x       y       z     vdW  Elec       q    Type
REMARK                         _______ _______ _______ _____ _____    ______ ____
ROOT
ATOM      1  S   LIG    1       21.243  47.412 183.883  0.00  0.00    +0.073 S 
ATOM      2  O   LIG    1       20.235  46.648 184.522  0.00  0.00    -0.150 OA
ATOM      3  O   LIG    1       20.898  48.073 182.678  0.00  0.00    -0.150 OA
ENDROOT
BRANCH   1   6
ATOM      4  C   LIG    1       24.125  48.059 182.291  0.00  0.00    +0.053 C 
ATOM      5  C   LIG    1       23.807  46.717 182.916  0.00  0.00    +0.014 A 
ATOM      6  C   LIG    1       22.660  46.346 183.581  0.00  0.00    +0.119 A 
ATOM      7  C   LIG    1       22.714  45.009 184.015  0.00  0.00    +0.051 A 
ATOM      8  C   LIG    1       23.893  44.369 183.706  0.00  0.00    +0.098 A 
ATOM      9  S   LIG    1       24.953  45.430 182.839  0.00  0.00    -0.085 S 
BRANCH   8  10
ATOM     10  C   LIG    1       24.266  43.008 184.034  0.00  0.00    +0.344 C 
ATOM     11  O   LIG    1       24.123  42.490 185.123  0.00  0.00    -0.245 OA
BRANCH  10  12
ATOM     12  O   LIG    1       24.809  42.255 183.085  0.00  0.00    -0.477 OA
ATOM     13  H   LIG    1       25.284  41.542 183.542  0.00  0.00    +0.295 HD
ENDBRANCH  10  12
ENDBRANCH   8  10
ENDBRANCH   1   6
BRANCH   1  14
ATOM     14  N   LIG    1       21.786  48.553 184.951  0.00  0.00    -0.213 N 
ATOM     15  H   LIG    1       22.688  48.769 184.508  0.00  0.00    +0.174 HD
BRANCH  14  16
ATOM     16  C   LIG    1       20.986  49.703 184.993  0.00  0.00    +0.084 A 
ATOM     17  C   LIG    1       21.354  50.858 184.299  0.00  0.00    +0.146 A 
ATOM     18  F   LIG    1       22.513  50.876 183.604  0.00  0.00    -0.204 F 
ATOM     19  C   LIG    1       20.557  51.991 184.306  0.00  0.00    +0.041 A 
ATOM     20  C   LIG    1       19.366  51.978 185.034  0.00  0.00    +0.015 A 
ATOM     21  C   LIG    1       18.980  50.835 185.759  0.00  0.00    +0.057 A 
ATOM     22  C   LIG    1       19.812  49.706 185.749  0.00  0.00    +0.039 A 
BRANCH  21  23
ATOM     23  C   LIG    1       17.680  50.814 186.578  0.00  0.00    +0.417 C 
ATOM     24  F   LIG    1       16.638  51.222 185.835  0.00  0.00    -0.166 F 
ATOM     25  F   LIG    1       17.814  51.629 187.634  0.00  0.00    -0.166 F 
ATOM     26  F   LIG    1       17.439  49.563 187.019  0.00  0.00    -0.166 F 
ENDBRANCH  21  23
ENDBRANCH  14  16
ENDBRANCH   1  14
TORSDOF 6
