MODEL 1
REMARK VINA RESULT:      -9.2      0.000      0.000
REMARK  Name = ZINC000000593415
REMARK                            x       y       z     vdW  Elec       q    Type
REMARK                         _______ _______ _______ _____ _____    ______ ____
ROOT
ATOM      1  C   LIG    1       25.426  42.055 184.376  0.00  0.00    -0.043 A 
ATOM      2  C   LIG    1       24.512  43.101 184.229  0.00  0.00    +0.006 A 
ATOM      3  C   LIG    1       23.722  43.512 185.298  0.00  0.00    +0.023 A 
ATOM      4  C   LIG    1       23.840  42.869 186.528  0.00  0.00    +0.034 A 
ATOM      5  C   LIG    1       24.755  41.830 186.697  0.00  0.00    +0.023 A 
ATOM      6  C   LIG    1       25.540  41.426 185.623  0.00  0.00    +0.006 A 
ENDROOT
BRANCH   4   7
ATOM      7  N   LIG    1       23.023  43.324 187.589  0.00  0.00    -0.282 N 
ATOM      8  H   LIG    1       22.011  43.320 187.426  0.00  0.00    +0.155 HD
ATOM      9  C   LIG    1       23.435  43.667 188.863  0.00  0.00    +0.248 C 
ATOM     10  O   LIG    1       24.601  43.478 189.180  0.00  0.00    -0.270 OA
BRANCH   9  11
ATOM     11  C   LIG    1       22.440  44.206 189.795  0.00  0.00    +0.042 A 
ATOM     12  C   LIG    1       22.651  44.204 191.188  0.00  0.00    +0.051 A 
ATOM     13  C   LIG    1       21.681  44.737 192.030  0.00  0.00    +0.127 A 
ATOM     14  F   LIG    1       21.906  44.731 193.359  0.00  0.00    -0.205 F 
ATOM     15  C   LIG    1       20.493  45.273 191.554  0.00  0.00    +0.076 A 
ATOM     16  C   LIG    1       20.296  45.255 190.182  0.00  0.00    +0.127 A 
ATOM     17  F   LIG    1       19.151  45.764 189.684  0.00  0.00    -0.205 F 
ATOM     18  C   LIG    1       21.237  44.735 189.300  0.00  0.00    +0.051 A 
ENDBRANCH   9  11
ENDBRANCH   4   7
BRANCH   1  19
ATOM     19  C   LIG    1       26.231  41.608 183.149  0.00  0.00    +0.031 C 
ATOM     20  C   LIG    1       25.323  41.374 181.926  0.00  0.00    +0.014 C 
BRANCH  19  21
ATOM     21  C   LIG    1       27.345  42.644 182.871  0.00  0.00    +0.113 C 
BRANCH  21  22
ATOM     22  N   LIG    1       27.432  42.830 181.428  0.00  0.00    -0.194 NA
ATOM     23  H   LIG    1       26.773  42.181 180.993  0.00  0.00    +0.148 HD
BRANCH  22  24
ATOM     24  S   LIG    1       27.280  44.350 180.854  0.00  0.00    +0.032 S 
ATOM     25  O   LIG    1       28.504  44.707 180.228  0.00  0.00    -0.158 OA
ATOM     26  O   LIG    1       26.104  44.424 180.061  0.00  0.00    -0.158 OA
BRANCH  24  28
ATOM     27  C   LIG    1       28.208  46.364 182.655  0.00  0.00    +0.033 C 
ATOM     28  C   LIG    1       27.055  45.380 182.323  0.00  0.00    +0.142 C 
ATOM     29  C   LIG    1       25.780  46.259 182.335  0.00  0.00    +0.033 C 
ENDBRANCH  24  28
ENDBRANCH  22  24
ENDBRANCH  21  22
ENDBRANCH  19  21
ENDBRANCH   1  19
TORSDOF 7
ENDMDL
MODEL 2
REMARK VINA RESULT:      -9.0      1.176      2.033
REMARK  Name = ZINC000000593415
REMARK                            x       y       z     vdW  Elec       q    Type
REMARK                         _______ _______ _______ _____ _____    ______ ____
ROOT
ATOM      1  C   LIG    1       25.452  42.019 184.051  0.00  0.00    -0.043 A 
ATOM      2  C   LIG    1       24.460  43.000 183.984  0.00  0.00    +0.006 A 
ATOM      3  C   LIG    1       23.782  43.407 185.128  0.00  0.00    +0.023 A 
ATOM      4  C   LIG    1       24.091  42.823 186.355  0.00  0.00    +0.034 A 
ATOM      5  C   LIG    1       25.086  41.850 186.444  0.00  0.00    +0.023 A 
ATOM      6  C   LIG    1       25.758  41.450 185.295  0.00  0.00    +0.006 A 
ENDROOT
BRANCH   4   7
ATOM      7  N   LIG    1       23.381  43.271 187.494  0.00  0.00    -0.282 N 
ATOM      8  H   LIG    1       22.377  43.438 187.375  0.00  0.00    +0.155 HD
ATOM      9  C   LIG    1       23.874  43.401 188.778  0.00  0.00    +0.248 C 
ATOM     10  O   LIG    1       25.005  43.005 189.023  0.00  0.00    -0.270 OA
BRANCH   9  11
ATOM     11  C   LIG    1       22.998  43.973 189.806  0.00  0.00    +0.042 A 
ATOM     12  C   LIG    1       22.149  45.063 189.535  0.00  0.00    +0.051 A 
ATOM     13  C   LIG    1       21.329  45.562 190.541  0.00  0.00    +0.127 A 
ATOM     14  F   LIG    1       20.519  46.602 190.257  0.00  0.00    -0.205 F 
ATOM     15  C   LIG    1       21.314  45.031 191.822  0.00  0.00    +0.076 A 
ATOM     16  C   LIG    1       22.166  43.967 192.076  0.00  0.00    +0.127 A 
ATOM     17  F   LIG    1       22.180  43.428 193.313  0.00  0.00    -0.205 F 
ATOM     18  C   LIG    1       23.002  43.432 191.103  0.00  0.00    +0.051 A 
ENDBRANCH   9  11
ENDBRANCH   4   7
BRANCH   1  19
ATOM     19  C   LIG    1       26.128  41.571 182.749  0.00  0.00    +0.031 C 
ATOM     20  C   LIG    1       25.199  41.749 181.534  0.00  0.00    +0.014 C 
BRANCH  19  21
ATOM     21  C   LIG    1       27.466  42.330 182.589  0.00  0.00    +0.113 C 
BRANCH  21  22
ATOM     22  N   LIG    1       27.396  43.105 181.355  0.00  0.00    -0.194 NA
ATOM     23  H   LIG    1       26.534  42.840 180.874  0.00  0.00    +0.148 HD
BRANCH  22  24
ATOM     24  S   LIG    1       27.574  44.722 181.471  0.00  0.00    +0.032 S 
ATOM     25  O   LIG    1       27.403  45.086 182.833  0.00  0.00    -0.158 OA
ATOM     26  O   LIG    1       28.798  45.094 180.853  0.00  0.00    -0.158 OA
BRANCH  24  28
ATOM     27  C   LIG    1       24.821  45.435 181.205  0.00  0.00    +0.033 C 
ATOM     28  C   LIG    1       26.206  45.409 180.508  0.00  0.00    +0.142 C 
ATOM     29  C   LIG    1       26.410  46.858 179.996  0.00  0.00    +0.033 C 
ENDBRANCH  24  28
ENDBRANCH  22  24
ENDBRANCH  21  22
ENDBRANCH  19  21
ENDBRANCH   1  19
TORSDOF 7
ENDMDL
MODEL 3
REMARK VINA RESULT:      -8.7     26.560     27.969
REMARK  Name = ZINC000000593415
REMARK                            x       y       z     vdW  Elec       q    Type
REMARK                         _______ _______ _______ _____ _____    ______ ____
ROOT
ATOM      1  C   LIG    1       30.356  17.840 184.284  0.00  0.00    -0.043 A 
ATOM      2  C   LIG    1       30.616  18.227 185.600  0.00  0.00    +0.006 A 
ATOM      3  C   LIG    1       31.915  18.487 186.024  0.00  0.00    +0.023 A 
ATOM      4  C   LIG    1       32.970  18.354 185.125  0.00  0.00    +0.034 A 
ATOM      5  C   LIG    1       32.730  17.980 183.803  0.00  0.00    +0.023 A 
ATOM      6  C   LIG    1       31.429  17.722 183.389  0.00  0.00    +0.006 A 
ENDROOT
BRANCH   4   7
ATOM      7  N   LIG    1       34.274  18.635 185.596  0.00  0.00    -0.282 N 
ATOM      8  H   LIG    1       34.890  17.832 185.755  0.00  0.00    +0.155 HD
ATOM      9  C   LIG    1       34.846  19.883 185.756  0.00  0.00    +0.248 C 
ATOM     10  O   LIG    1       34.235  20.870 185.370  0.00  0.00    -0.270 OA
BRANCH   9  11
ATOM     11  C   LIG    1       36.185  19.966 186.348  0.00  0.00    +0.042 A 
ATOM     12  C   LIG    1       37.311  19.404 185.715  0.00  0.00    +0.051 A 
ATOM     13  C   LIG    1       38.562  19.520 186.311  0.00  0.00    +0.127 A 
ATOM     14  F   LIG    1       39.628  18.981 185.685  0.00  0.00    -0.205 F 
ATOM     15  C   LIG    1       38.753  20.166 187.524  0.00  0.00    +0.076 A 
ATOM     16  C   LIG    1       37.632  20.701 188.140  0.00  0.00    +0.127 A 
ATOM     17  F   LIG    1       37.781  21.333 189.322  0.00  0.00    -0.205 F 
ATOM     18  C   LIG    1       36.362  20.614 187.582  0.00  0.00    +0.051 A 
ENDBRANCH   9  11
ENDBRANCH   4   7
BRANCH   1  19
ATOM     19  C   LIG    1       28.910  17.514 183.887  0.00  0.00    +0.031 C 
ATOM     20  C   LIG    1       28.798  17.142 182.397  0.00  0.00    +0.014 C 
BRANCH  19  21
ATOM     21  C   LIG    1       28.370  16.404 184.818  0.00  0.00    +0.113 C 
BRANCH  21  22
ATOM     22  N   LIG    1       27.323  16.987 185.649  0.00  0.00    -0.194 NA
ATOM     23  H   LIG    1       26.427  16.635 185.307  0.00  0.00    +0.148 HD
BRANCH  22  24
ATOM     24  S   LIG    1       27.474  16.836 187.266  0.00  0.00    +0.032 S 
ATOM     25  O   LIG    1       28.486  15.874 187.525  0.00  0.00    -0.158 OA
ATOM     26  O   LIG    1       27.654  18.128 187.831  0.00  0.00    -0.158 OA
BRANCH  24  28
ATOM     27  C   LIG    1       25.148  15.237 186.831  0.00  0.00    +0.033 C 
ATOM     28  C   LIG    1       25.886  16.176 187.822  0.00  0.00    +0.142 C 
ATOM     29  C   LIG    1       25.919  15.384 189.154  0.00  0.00    +0.033 C 
ENDBRANCH  24  28
ENDBRANCH  22  24
ENDBRANCH  21  22
ENDBRANCH  19  21
ENDBRANCH   1  19
TORSDOF 7
ENDMDL
MODEL 4
REMARK VINA RESULT:      -8.3      5.539      7.051
REMARK  Name = ZINC000000593415
REMARK                            x       y       z     vdW  Elec       q    Type
REMARK                         _______ _______ _______ _____ _____    ______ ____
ROOT
ATOM      1  C   LIG    1       19.057  49.792 184.362  0.00  0.00    -0.043 A 
ATOM      2  C   LIG    1       19.175  48.400 184.354  0.00  0.00    +0.006 A 
ATOM      3  C   LIG    1       19.400  47.696 185.532  0.00  0.00    +0.023 A 
ATOM      4  C   LIG    1       19.514  48.389 186.736  0.00  0.00    +0.034 A 
ATOM      5  C   LIG    1       19.387  49.777 186.766  0.00  0.00    +0.023 A 
ATOM      6  C   LIG    1       19.163  50.472 185.583  0.00  0.00    +0.006 A 
ENDROOT
BRANCH   4   7
ATOM      7  N   LIG    1       19.735  47.634 187.911  0.00  0.00    -0.282 N 
ATOM      8  H   LIG    1       19.017  47.695 188.640  0.00  0.00    +0.155 HD
ATOM      9  C   LIG    1       20.760  46.734 188.136  0.00  0.00    +0.248 C 
ATOM     10  O   LIG    1       21.518  46.456 187.218  0.00  0.00    -0.270 OA
BRANCH   9  11
ATOM     11  C   LIG    1       20.866  46.118 189.462  0.00  0.00    +0.042 A 
ATOM     12  C   LIG    1       20.343  46.738 190.614  0.00  0.00    +0.051 A 
ATOM     13  C   LIG    1       20.459  46.106 191.847  0.00  0.00    +0.127 A 
ATOM     14  F   LIG    1       19.945  46.715 192.935  0.00  0.00    -0.205 F 
ATOM     15  C   LIG    1       21.085  44.878 191.999  0.00  0.00    +0.076 A 
ATOM     16  C   LIG    1       21.606  44.287 190.859  0.00  0.00    +0.127 A 
ATOM     17  F   LIG    1       22.225  43.094 190.971  0.00  0.00    -0.205 F 
ATOM     18  C   LIG    1       21.512  44.878 189.603  0.00  0.00    +0.051 A 
ENDBRANCH   9  11
ENDBRANCH   4   7
BRANCH   1  19
ATOM     19  C   LIG    1       18.864  50.519 183.026  0.00  0.00    +0.031 C 
ATOM     20  C   LIG    1       19.198  52.018 183.139  0.00  0.00    +0.014 C 
BRANCH  19  21
ATOM     21  C   LIG    1       19.698  49.805 181.937  0.00  0.00    +0.113 C 
BRANCH  21  22
ATOM     22  N   LIG    1       21.011  50.438 181.893  0.00  0.00    -0.194 NA
ATOM     23  H   LIG    1       21.005  51.206 182.568  0.00  0.00    +0.148 HD
BRANCH  22  24
ATOM     24  S   LIG    1       22.317  49.475 182.057  0.00  0.00    +0.032 S 
ATOM     25  O   LIG    1       21.867  48.130 182.111  0.00  0.00    -0.158 OA
ATOM     26  O   LIG    1       23.256  49.801 181.042  0.00  0.00    -0.158 OA
BRANCH  24  28
ATOM     27  C   LIG    1       22.552  51.265 184.271  0.00  0.00    +0.033 C 
ATOM     28  C   LIG    1       23.022  49.918 183.662  0.00  0.00    +0.142 C 
ATOM     29  C   LIG    1       22.806  48.884 184.796  0.00  0.00    +0.033 C 
ENDBRANCH  24  28
ENDBRANCH  22  24
ENDBRANCH  21  22
ENDBRANCH  19  21
ENDBRANCH   1  19
TORSDOF 7
ENDMDL
MODEL 5
REMARK VINA RESULT:      -8.0     23.708     25.463
REMARK  Name = ZINC000000593415
REMARK                            x       y       z     vdW  Elec       q    Type
REMARK                         _______ _______ _______ _____ _____    ______ ____
ROOT
ATOM      1  C   LIG    1       17.486  38.356 209.005  0.00  0.00    -0.043 A 
ATOM      2  C   LIG    1       18.128  38.359 210.246  0.00  0.00    +0.006 A 
ATOM      3  C   LIG    1       19.257  39.142 210.463  0.00  0.00    +0.023 A 
ATOM      4  C   LIG    1       19.757  39.929 209.428  0.00  0.00    +0.034 A 
ATOM      5  C   LIG    1       19.123  39.949 208.186  0.00  0.00    +0.023 A 
ATOM      6  C   LIG    1       17.996  39.162 207.978  0.00  0.00    +0.006 A 
ENDROOT
BRANCH   4   7
ATOM      7  N   LIG    1       20.902  40.716 209.694  0.00  0.00    -0.282 N 
ATOM      8  H   LIG    1       20.738  41.687 209.979  0.00  0.00    +0.155 HD
ATOM      9  C   LIG    1       22.215  40.285 209.720  0.00  0.00    +0.248 C 
ATOM     10  O   LIG    1       22.449  39.090 209.607  0.00  0.00    -0.270 OA
BRANCH   9  11
ATOM     11  C   LIG    1       23.271  41.281 209.927  0.00  0.00    +0.042 A 
ATOM     12  C   LIG    1       23.920  41.427 211.168  0.00  0.00    +0.051 A 
ATOM     13  C   LIG    1       24.924  42.379 211.310  0.00  0.00    +0.127 A 
ATOM     14  F   LIG    1       25.537  42.497 212.505  0.00  0.00    -0.205 F 
ATOM     15  C   LIG    1       25.316  43.209 210.270  0.00  0.00    +0.076 A 
ATOM     16  C   LIG    1       24.658  43.061 209.059  0.00  0.00    +0.127 A 
ATOM     17  F   LIG    1       25.011  43.855 208.027  0.00  0.00    -0.205 F 
ATOM     18  C   LIG    1       23.650  42.122 208.868  0.00  0.00    +0.051 A 
ENDBRANCH   9  11
ENDBRANCH   4   7
BRANCH   1  19
ATOM     19  C   LIG    1       16.279  37.431 208.808  0.00  0.00    +0.031 C 
ATOM     20  C   LIG    1       15.021  38.217 208.392  0.00  0.00    +0.014 C 
BRANCH  19  21
ATOM     21  C   LIG    1       16.650  36.325 207.792  0.00  0.00    +0.113 C 
BRANCH  21  22
ATOM     22  N   LIG    1       15.438  35.577 207.482  0.00  0.00    -0.194 NA
ATOM     23  H   LIG    1       15.053  35.960 206.616  0.00  0.00    +0.148 HD
BRANCH  22  24
ATOM     24  S   LIG    1       15.545  33.950 207.451  0.00  0.00    +0.032 S 
ATOM     25  O   LIG    1       14.452  33.452 206.692  0.00  0.00    -0.158 OA
ATOM     26  O   LIG    1       16.849  33.585 207.019  0.00  0.00    -0.158 OA
BRANCH  24  28
ATOM     27  C   LIG    1       14.578  34.424 210.096  0.00  0.00    +0.033 C 
ATOM     28  C   LIG    1       15.339  33.437 209.172  0.00  0.00    +0.142 C 
ATOM     29  C   LIG    1       14.626  32.078 209.385  0.00  0.00    +0.033 C 
ENDBRANCH  24  28
ENDBRANCH  22  24
ENDBRANCH  21  22
ENDBRANCH  19  21
ENDBRANCH   1  19
TORSDOF 7
ENDMDL
MODEL 6
REMARK VINA RESULT:      -7.9     22.493     24.072
REMARK  Name = ZINC000000593415
REMARK                            x       y       z     vdW  Elec       q    Type
REMARK                         _______ _______ _______ _____ _____    ______ ____
ROOT
ATOM      1  C   LIG    1       23.058  42.650 209.548  0.00  0.00    -0.043 A 
ATOM      2  C   LIG    1       21.833  43.063 210.078  0.00  0.00    +0.006 A 
ATOM      3  C   LIG    1       20.751  42.191 210.138  0.00  0.00    +0.023 A 
ATOM      4  C   LIG    1       20.889  40.890 209.658  0.00  0.00    +0.034 A 
ATOM      5  C   LIG    1       22.107  40.455 209.137  0.00  0.00    +0.023 A 
ATOM      6  C   LIG    1       23.182  41.334 209.081  0.00  0.00    +0.006 A 
ENDROOT
BRANCH   4   7
ATOM      7  N   LIG    1       19.766  40.035 209.745  0.00  0.00    -0.282 N 
ATOM      8  H   LIG    1       19.558  39.639 210.667  0.00  0.00    +0.155 HD
ATOM      9  C   LIG    1       18.852  39.764 208.745  0.00  0.00    +0.248 C 
ATOM     10  O   LIG    1       18.924  40.382 207.692  0.00  0.00    -0.270 OA
BRANCH   9  11
ATOM     11  C   LIG    1       17.804  38.773 209.008  0.00  0.00    +0.042 A 
ATOM     12  C   LIG    1       17.999  37.708 209.909  0.00  0.00    +0.051 A 
ATOM     13  C   LIG    1       16.970  36.801 210.132  0.00  0.00    +0.127 A 
ATOM     14  F   LIG    1       17.176  35.793 211.004  0.00  0.00    -0.205 F 
ATOM     15  C   LIG    1       15.743  36.893 209.492  0.00  0.00    +0.076 A 
ATOM     16  C   LIG    1       15.571  37.939 208.599  0.00  0.00    +0.127 A 
ATOM     17  F   LIG    1       14.392  38.056 207.956  0.00  0.00    -0.205 F 
ATOM     18  C   LIG    1       16.570  38.872 208.344  0.00  0.00    +0.051 A 
ENDBRANCH   9  11
ENDBRANCH   4   7
BRANCH   1  19
ATOM     19  C   LIG    1       24.199  43.670 209.458  0.00  0.00    +0.031 C 
ATOM     20  C   LIG    1       25.491  43.140 210.107  0.00  0.00    +0.014 C 
BRANCH  19  21
ATOM     21  C   LIG    1       24.400  44.073 207.978  0.00  0.00    +0.113 C 
BRANCH  21  22
ATOM     22  N   LIG    1       25.344  45.184 207.941  0.00  0.00    -0.194 NA
ATOM     23  H   LIG    1       26.000  45.004 207.179  0.00  0.00    +0.148 HD
BRANCH  22  24
ATOM     24  S   LIG    1       24.728  46.693 207.890  0.00  0.00    +0.032 S 
ATOM     25  O   LIG    1       25.538  47.469 207.019  0.00  0.00    -0.158 OA
ATOM     26  O   LIG    1       23.343  46.612 207.581  0.00  0.00    -0.158 OA
BRANCH  24  28
ATOM     27  C   LIG    1       23.710  47.093 210.529  0.00  0.00    +0.033 C 
ATOM     28  C   LIG    1       24.910  47.327 209.574  0.00  0.00    +0.142 C 
ATOM     29  C   LIG    1       26.138  46.800 210.358  0.00  0.00    +0.033 C 
ENDBRANCH  24  28
ENDBRANCH  22  24
ENDBRANCH  21  22
ENDBRANCH  19  21
ENDBRANCH   1  19
TORSDOF 7
ENDMDL
MODEL 7
REMARK VINA RESULT:      -7.8     23.784     25.601
REMARK  Name = ZINC000000593415
REMARK                            x       y       z     vdW  Elec       q    Type
REMARK                         _______ _______ _______ _____ _____    ______ ____
ROOT
ATOM      1  C   LIG    1       17.519  38.143 209.104  0.00  0.00    -0.043 A 
ATOM      2  C   LIG    1       17.957  39.064 208.149  0.00  0.00    +0.006 A 
ATOM      3  C   LIG    1       19.069  39.863 208.388  0.00  0.00    +0.023 A 
ATOM      4  C   LIG    1       19.752  39.749 209.597  0.00  0.00    +0.034 A 
ATOM      5  C   LIG    1       19.337  38.827 210.558  0.00  0.00    +0.023 A 
ATOM      6  C   LIG    1       18.224  38.032 210.310  0.00  0.00    +0.006 A 
ENDROOT
BRANCH   4   7
ATOM      7  N   LIG    1       20.882  40.576 209.796  0.00  0.00    -0.282 N 
ATOM      8  H   LIG    1       20.699  41.559 210.024  0.00  0.00    +0.155 HD
ATOM      9  C   LIG    1       22.204  40.178 209.826  0.00  0.00    +0.248 C 
ATOM     10  O   LIG    1       22.466  38.984 209.782  0.00  0.00    -0.270 OA
BRANCH   9  11
ATOM     11  C   LIG    1       23.240  41.208 209.954  0.00  0.00    +0.042 A 
ATOM     12  C   LIG    1       23.577  42.058 208.882  0.00  0.00    +0.051 A 
ATOM     13  C   LIG    1       24.558  43.027 209.058  0.00  0.00    +0.127 A 
ATOM     14  F   LIG    1       24.861  43.835 208.021  0.00  0.00    -0.205 F 
ATOM     15  C   LIG    1       25.236  43.193 210.257  0.00  0.00    +0.076 A 
ATOM     16  C   LIG    1       24.901  42.341 211.297  0.00  0.00    +0.127 A 
ATOM     17  F   LIG    1       25.544  42.472 212.476  0.00  0.00    -0.205 F 
ATOM     18  C   LIG    1       23.926  41.358 211.171  0.00  0.00    +0.051 A 
ENDBRANCH   9  11
ENDBRANCH   4   7
BRANCH   1  19
ATOM     19  C   LIG    1       16.254  37.326 208.808  0.00  0.00    +0.031 C 
ATOM     20  C   LIG    1       15.068  38.231 208.425  0.00  0.00    +0.014 C 
BRANCH  19  21
ATOM     21  C   LIG    1       16.574  36.276 207.720  0.00  0.00    +0.113 C 
BRANCH  21  22
ATOM     22  N   LIG    1       15.346  35.546 207.427  0.00  0.00    -0.194 NA
ATOM     23  H   LIG    1       15.041  35.820 206.491  0.00  0.00    +0.148 HD
BRANCH  22  24
ATOM     24  S   LIG    1       15.367  33.927 207.626  0.00  0.00    +0.032 S 
ATOM     25  O   LIG    1       14.458  33.358 206.695  0.00  0.00    -0.158 OA
ATOM     26  O   LIG    1       16.714  33.476 207.569  0.00  0.00    -0.158 OA
BRANCH  24  28
ATOM     27  C   LIG    1       14.490  32.180 209.709  0.00  0.00    +0.033 C 
ATOM     28  C   LIG    1       14.735  33.656 209.298  0.00  0.00    +0.142 C 
ATOM     29  C   LIG    1       15.600  34.239 210.444  0.00  0.00    +0.033 C 
ENDBRANCH  24  28
ENDBRANCH  22  24
ENDBRANCH  21  22
ENDBRANCH  19  21
ENDBRANCH   1  19
TORSDOF 7
ENDMDL
MODEL 8
REMARK VINA RESULT:      -7.7     22.474     24.266
REMARK  Name = ZINC000000593415
REMARK                            x       y       z     vdW  Elec       q    Type
REMARK                         _______ _______ _______ _____ _____    ______ ____
ROOT
ATOM      1  C   LIG    1       22.814  42.543 209.566  0.00  0.00    -0.043 A 
ATOM      2  C   LIG    1       22.995  41.244 209.086  0.00  0.00    +0.006 A 
ATOM      3  C   LIG    1       21.989  40.292 209.208  0.00  0.00    +0.023 A 
ATOM      4  C   LIG    1       20.787  40.637 209.822  0.00  0.00    +0.034 A 
ATOM      5  C   LIG    1       20.582  41.932 210.297  0.00  0.00    +0.023 A 
ATOM      6  C   LIG    1       21.594  42.876 210.171  0.00  0.00    +0.006 A 
ENDROOT
BRANCH   4   7
ATOM      7  N   LIG    1       19.788  39.640 209.918  0.00  0.00    -0.282 N 
ATOM      8  H   LIG    1       19.763  39.095 210.786  0.00  0.00    +0.155 HD
ATOM      9  C   LIG    1       18.770  39.397 209.015  0.00  0.00    +0.248 C 
ATOM     10  O   LIG    1       18.619  40.161 208.073  0.00  0.00    -0.270 OA
BRANCH   9  11
ATOM     11  C   LIG    1       17.887  38.252 209.253  0.00  0.00    +0.042 A 
ATOM     12  C   LIG    1       17.163  37.643 208.209  0.00  0.00    +0.051 A 
ATOM     13  C   LIG    1       16.347  36.552 208.484  0.00  0.00    +0.127 A 
ATOM     14  F   LIG    1       15.669  35.980 207.468  0.00  0.00    -0.205 F 
ATOM     15  C   LIG    1       16.204  36.031 209.762  0.00  0.00    +0.076 A 
ATOM     16  C   LIG    1       16.913  36.649 210.780  0.00  0.00    +0.127 A 
ATOM     17  F   LIG    1       16.795  36.172 212.036  0.00  0.00    -0.205 F 
ATOM     18  C   LIG    1       17.743  37.742 210.555  0.00  0.00    +0.051 A 
ENDBRANCH   9  11
ENDBRANCH   4   7
BRANCH   1  19
ATOM     19  C   LIG    1       23.978  43.536 209.453  0.00  0.00    +0.031 C 
ATOM     20  C   LIG    1       25.230  43.031 210.194  0.00  0.00    +0.014 C 
BRANCH  19  21
ATOM     21  C   LIG    1       24.250  43.828 207.959  0.00  0.00    +0.113 C 
BRANCH  21  22
ATOM     22  N   LIG    1       25.221  44.913 207.885  0.00  0.00    -0.194 NA
ATOM     23  H   LIG    1       25.830  44.726 207.086  0.00  0.00    +0.148 HD
BRANCH  22  24
ATOM     24  S   LIG    1       24.646  46.439 207.886  0.00  0.00    +0.032 S 
ATOM     25  O   LIG    1       25.454  47.214 207.013  0.00  0.00    -0.158 OA
ATOM     26  O   LIG    1       23.252  46.403 207.612  0.00  0.00    -0.158 OA
BRANCH  24  28
ATOM     27  C   LIG    1       25.485  48.450 209.733  0.00  0.00    +0.033 C 
ATOM     28  C   LIG    1       24.889  47.026 209.579  0.00  0.00    +0.142 C 
ATOM     29  C   LIG    1       23.623  47.036 210.472  0.00  0.00    +0.033 C 
ENDBRANCH  24  28
ENDBRANCH  22  24
ENDBRANCH  21  22
ENDBRANCH  19  21
ENDBRANCH   1  19
TORSDOF 7
ENDMDL
MODEL 9
REMARK VINA RESULT:      -7.6     28.606     32.601
REMARK  Name = ZINC000000593415
REMARK                            x       y       z     vdW  Elec       q    Type
REMARK                         _______ _______ _______ _____ _____    ______ ____
ROOT
ATOM      1  C   LIG    1       26.419  25.034 213.387  0.00  0.00    -0.043 A 
ATOM      2  C   LIG    1       27.659  25.579 213.042  0.00  0.00    +0.006 A 
ATOM      3  C   LIG    1       27.929  25.965 211.734  0.00  0.00    +0.023 A 
ATOM      4  C   LIG    1       26.953  25.800 210.753  0.00  0.00    +0.034 A 
ATOM      5  C   LIG    1       25.706  25.270 211.079  0.00  0.00    +0.023 A 
ATOM      6  C   LIG    1       25.445  24.886 212.389  0.00  0.00    +0.006 A 
ENDROOT
BRANCH   4   7
ATOM      7  N   LIG    1       27.268  26.213 209.437  0.00  0.00    -0.282 N 
ATOM      8  H   LIG    1       27.038  27.181 209.190  0.00  0.00    +0.155 HD
ATOM      9  C   LIG    1       27.955  25.486 208.483  0.00  0.00    +0.248 C 
ATOM     10  O   LIG    1       28.447  24.411 208.797  0.00  0.00    -0.270 OA
BRANCH   9  11
ATOM     11  C   LIG    1       28.100  26.059 207.141  0.00  0.00    +0.042 A 
ATOM     12  C   LIG    1       29.079  25.598 206.240  0.00  0.00    +0.051 A 
ATOM     13  C   LIG    1       29.168  26.167 204.974  0.00  0.00    +0.127 A 
ATOM     14  F   LIG    1       30.109  25.706 204.124  0.00  0.00    -0.205 F 
ATOM     15  C   LIG    1       28.329  27.188 204.555  0.00  0.00    +0.076 A 
ATOM     16  C   LIG    1       27.379  27.639 205.459  0.00  0.00    +0.127 A 
ATOM     17  F   LIG    1       26.549  28.634 205.085  0.00  0.00    -0.205 F 
ATOM     18  C   LIG    1       27.250  27.101 206.734  0.00  0.00    +0.051 A 
ENDBRANCH   9  11
ENDBRANCH   4   7
BRANCH   1  19
ATOM     19  C   LIG    1       26.197  24.576 214.833  0.00  0.00    +0.031 C 
ATOM     20  C   LIG    1       26.815  25.560 215.844  0.00  0.00    +0.014 C 
BRANCH  19  21
ATOM     21  C   LIG    1       24.684  24.358 215.067  0.00  0.00    +0.113 C 
BRANCH  21  22
ATOM     22  N   LIG    1       24.084  25.656 215.355  0.00  0.00    -0.194 NA
ATOM     23  H   LIG    1       23.545  25.934 214.533  0.00  0.00    +0.148 HD
BRANCH  22  24
ATOM     24  S   LIG    1       23.231  25.801 216.738  0.00  0.00    +0.032 S 
ATOM     25  O   LIG    1       23.706  24.823 217.651  0.00  0.00    -0.158 OA
ATOM     26  O   LIG    1       23.276  27.157 217.163  0.00  0.00    -0.158 OA
BRANCH  24  28
ATOM     27  C   LIG    1       20.948  24.093 216.893  0.00  0.00    +0.033 C 
ATOM     28  C   LIG    1       21.530  25.393 216.280  0.00  0.00    +0.142 C 
ATOM     29  C   LIG    1       20.473  26.480 216.598  0.00  0.00    +0.033 C 
ENDBRANCH  24  28
ENDBRANCH  22  24
ENDBRANCH  21  22
ENDBRANCH  19  21
ENDBRANCH   1  19
TORSDOF 7
ENDMDL
