REMARK VINA RESULT:      -6.9     12.827     14.628
REMARK  Name = ZINC000022625070
REMARK                            x       y       z     vdW  Elec       q    Type
REMARK                         _______ _______ _______ _____ _____    ______ ____
ROOT
ATOM      1  C   LIG    1       19.752  40.721 209.114  0.00  0.00    +0.171 A 
ATOM      2  C   LIG    1       19.281  39.549 209.706  0.00  0.00    +0.032 A 
ATOM      3  C   LIG    1       19.623  38.825 210.997  0.00  0.00    +0.046 C 
ATOM      4  C   LIG    1       18.353  38.073 211.484  0.00  0.00    +0.040 C 
ATOM      5  C   LIG    1       17.698  37.271 210.349  0.00  0.00    -0.036 A 
ATOM      6  C   LIG    1       17.682  37.793 209.044  0.00  0.00    +0.027 A 
ATOM      7  C   LIG    1       17.011  37.115 208.025  0.00  0.00    +0.057 A 
ATOM      8  C   LIG    1       16.376  35.907 208.311  0.00  0.00    +0.121 A 
ATOM      9  C   LIG    1       16.402  35.375 209.598  0.00  0.00    +0.046 A 
ATOM     10  C   LIG    1       17.058  36.062 210.615  0.00  0.00    +0.008 A 
ATOM     11  C   LIG    1       18.409  39.022 208.836  0.00  0.00    +0.171 A 
ATOM     12  O   LIG    1       18.355  39.831 207.771  0.00  0.00    -0.354 OA
ATOM     13  N   LIG    1       19.172  40.867 207.942  0.00  0.00    -0.073 NA
ENDROOT
BRANCH   1  16
ATOM     14  N   LIG    1       21.991  41.668 209.117  0.00  0.00    -0.307 N 
ATOM     15  H   LIG    1       22.168  40.966 208.389  0.00  0.00    +0.149 HD
ATOM     16  C   LIG    1       20.739  41.654 209.669  0.00  0.00    +0.266 C 
ATOM     17  O   LIG    1       20.520  42.421 210.605  0.00  0.00    -0.268 OA
BRANCH  14  18
ATOM     18  C   LIG    1       23.123  42.365 209.696  0.00  0.00    +0.070 C 
ATOM     19  C   LIG    1       23.845  43.047 208.533  0.00  0.00    +0.028 C 
BRANCH  18  20
ATOM     20  C   LIG    1       23.991  41.333 210.439  0.00  0.00    +0.023 C 
BRANCH  20  21
ATOM     21  C   LIG    1       23.643  41.105 211.927  0.00  0.00    +0.017 C 
BRANCH  21  22
ATOM     22  C   LIG    1       24.374  39.809 212.354  0.00  0.00    +0.084 C 
BRANCH  22  23
ATOM     23  N   LIG    1       25.332  40.102 213.452  0.00  0.00    -0.303 NA
BRANCH  23  25
ATOM     24  C   LIG    1       27.464  40.599 212.526  0.00  0.00    +0.020 C 
ATOM     25  C   LIG    1       26.668  39.502 213.238  0.00  0.00    +0.081 C 
ENDBRANCH  23  25
BRANCH  23  26
ATOM     26  C   LIG    1       25.381  41.530 213.823  0.00  0.00    +0.081 C 
ATOM     27  C   LIG    1       25.219  41.556 215.348  0.00  0.00    +0.020 C 
ENDBRANCH  23  26
ENDBRANCH  22  23
ENDBRANCH  21  22
ENDBRANCH  20  21
ENDBRANCH  18  20
ENDBRANCH  14  18
ENDBRANCH   1  16
BRANCH   8  28
ATOM     28  O   LIG    1       15.704  35.189 207.349  0.00  0.00    -0.495 OA
ATOM     29  C   LIG    1       15.115  33.883 207.546  0.00  0.00    +0.277 C 
ENDBRANCH   8  28
TORSDOF 9
