REMARK VINA RESULT:      -6.9      2.285      3.750
REMARK  Name = ZINC000000608130
REMARK                            x       y       z     vdW  Elec       q    Type
REMARK                         _______ _______ _______ _____ _____    ______ ____
ROOT
ATOM      1  C   LIG    1       23.248  44.986 181.672  0.00  0.00    +0.264 C 
ATOM      2  C   LIG    1       24.618  45.341 181.032  0.00  0.00    +0.145 C 
ATOM      3  C   LIG    1       25.271  46.655 181.497  0.00  0.00    +0.059 C 
ATOM      4  C   LIG    1       24.435  45.444 179.510  0.00  0.00    +0.059 C 
ATOM      5  O   LIG    1       25.548  44.266 181.273  0.00  0.00    -0.482 OA
ATOM      6  C   LIG    1       25.556  43.542 182.434  0.00  0.00    +0.132 A 
ATOM      7  C   LIG    1       26.617  42.653 182.624  0.00  0.00    +0.047 A 
ATOM      8  C   LIG    1       26.685  41.894 183.784  0.00  0.00    +0.015 A 
ATOM      9  C   LIG    1       25.691  42.018 184.765  0.00  0.00    +0.018 A 
ATOM     10  C   LIG    1       24.633  42.920 184.545  0.00  0.00    +0.149 A 
ATOM     11  O   LIG    1       23.652  43.057 185.513  0.00  0.00    -0.422 OA
ATOM     12  C   LIG    1       23.666  42.361 186.680  0.00  0.00    +0.337 A 
ATOM     13  O   LIG    1       22.760  42.571 187.471  0.00  0.00    -0.245 OA
ATOM     14  C   LIG    1       24.740  41.430 186.909  0.00  0.00    +0.092 A 
ATOM     15  C   LIG    1       25.722  41.259 185.988  0.00  0.00    +0.018 A 
ATOM     16  C   LIG    1       24.541  43.686 183.381  0.00  0.00    +0.081 A 
ATOM     17  C   LIG    1       23.384  44.652 183.181  0.00  0.00    +0.258 C 
ENDROOT
BRANCH   1  18
ATOM     18  O   LIG    1       22.314  46.112 181.494  0.00  0.00    -0.453 OA
BRANCH  18  19
ATOM     19  C   LIG    1       21.116  45.911 180.918  0.00  0.00    +0.310 C 
ATOM     20  O   LIG    1       20.858  44.827 180.398  0.00  0.00    -0.251 OA
BRANCH  19  21
ATOM     21  C   LIG    1       20.122  47.083 180.844  0.00  0.00    +0.094 C 
ATOM     22  C   LIG    1       20.391  47.970 179.611  0.00  0.00    +0.019 C 
BRANCH  21  24
ATOM     23  C   LIG    1       18.761  48.491 182.533  0.00  0.00    +0.004 C 
ATOM     24  C   LIG    1       20.127  47.898 182.153  0.00  0.00    +0.011 C 
ENDBRANCH  21  24
ENDBRANCH  19  21
ENDBRANCH  18  19
ENDBRANCH   1  18
BRANCH  17  25
ATOM     25  O   LIG    1       23.714  45.848 183.945  0.00  0.00    -0.453 OA
BRANCH  25  26
ATOM     26  C   LIG    1       22.798  46.483 184.674  0.00  0.00    +0.305 C 
ATOM     27  O   LIG    1       21.890  45.877 185.232  0.00  0.00    -0.251 OA
ATOM     28  C   LIG    1       22.900  47.991 184.769  0.00  0.00    +0.136 C 
ENDBRANCH  25  26
ENDBRANCH  17  25
TORSDOF 6
