REMARK VINA RESULT:      -9.2      4.515      7.806
REMARK  Name = ZINC000000603769
REMARK                            x       y       z     vdW  Elec       q    Type
REMARK                         _______ _______ _______ _____ _____    ______ ____
ROOT
ATOM      1  C   LIG    1       37.690  20.315 190.717  0.00  0.00    +0.139 A 
ATOM      2  N   LIG    1       38.209  19.156 190.244  0.00  0.00    -0.336 N 
ATOM      3  H   LIG    1       39.002  18.632 190.645  0.00  0.00    +0.167 HD
ATOM      4  C   LIG    1       37.527  18.771 189.156  0.00  0.00    +0.093 A 
ATOM      5  C   LIG    1       36.596  19.762 188.957  0.00  0.00    +0.099 A 
ATOM      6  N   LIG    1       36.697  20.694 189.943  0.00  0.00    -0.227 NA
ENDROOT
BRANCH   5   7
ATOM      7  C   LIG    1       35.643  19.868 187.861  0.00  0.00    +0.006 A 
ATOM      8  C   LIG    1       34.510  19.035 187.824  0.00  0.00    +0.059 A 
ATOM      9  C   LIG    1       33.632  19.148 186.758  0.00  0.00    +0.167 A 
ATOM     10  O   LIG    1       32.505  18.431 186.545  0.00  0.00    -0.453 OA
ATOM     11  C   LIG    1       31.929  18.936 185.278  0.00  0.00    +0.466 C 
ATOM     12  O   LIG    1       32.864  19.989 184.817  0.00  0.00    -0.453 OA
ATOM     13  C   LIG    1       33.839  20.056 185.749  0.00  0.00    +0.166 A 
ATOM     14  C   LIG    1       34.936  20.905 185.760  0.00  0.00    +0.050 A 
ATOM     15  C   LIG    1       35.834  20.808 186.825  0.00  0.00    +0.014 A 
ENDBRANCH   5   7
BRANCH   1  19
ATOM     16  C   LIG    1       39.237  22.314 194.183  0.00  0.00    +0.037 A 
ATOM     17  C   LIG    1       39.334  22.889 192.906  0.00  0.00    +0.014 A 
ATOM     18  C   LIG    1       38.831  22.229 191.792  0.00  0.00    +0.012 A 
ATOM     19  C   LIG    1       38.208  20.979 191.909  0.00  0.00    +0.017 A 
ATOM     20  C   LIG    1       38.105  20.408 193.188  0.00  0.00    +0.012 A 
ATOM     21  C   LIG    1       38.610  21.067 194.303  0.00  0.00    +0.014 A 
BRANCH  16  25
ATOM     22  N   LIG    1       40.494  22.307 196.296  0.00  0.00    -0.325 N 
ATOM     23  H   LIG    1       40.616  21.290 196.244  0.00  0.00    +0.145 HD
ATOM     24  H   LIG    1       40.788  22.826 197.134  0.00  0.00    +0.145 HD
ATOM     25  C   LIG    1       39.767  22.980 195.378  0.00  0.00    +0.242 C 
ATOM     26  O   LIG    1       39.593  24.157 195.642  0.00  0.00    -0.270 OA
ENDBRANCH  16  25
ENDBRANCH   1  19
BRANCH   4  27
ATOM     27  C   LIG    1       37.845  17.522 188.495  0.00  0.00    +0.089 A 
ATOM     28  N   LIG    1       39.071  17.406 187.947  0.00  0.00    -0.253 NA
ATOM     29  C   LIG    1       39.422  16.284 187.324  0.00  0.00    +0.111 A 
ATOM     30  C   LIG    1       38.557  15.199 187.222  0.00  0.00    +0.020 A 
ATOM     31  C   LIG    1       37.294  15.278 187.789  0.00  0.00    +0.004 A 
ATOM     32  C   LIG    1       36.943  16.451 188.435  0.00  0.00    +0.030 A 
ENDBRANCH   4  27
TORSDOF 4
