REMARK VINA RESULT:      -9.0     10.916     14.063
REMARK  Name = ZINC000000603769
REMARK                            x       y       z     vdW  Elec       q    Type
REMARK                         _______ _______ _______ _____ _____    ______ ____
ROOT
ATOM      1  C   LIG    1       27.124  14.995 196.270  0.00  0.00    +0.139 A 
ATOM      2  N   LIG    1       26.071  14.820 195.435  0.00  0.00    -0.336 N 
ATOM      3  H   LIG    1       26.106  14.795 194.405  0.00  0.00    +0.167 HD
ATOM      4  C   LIG    1       24.948  14.678 196.154  0.00  0.00    +0.093 A 
ATOM      5  C   LIG    1       25.349  14.813 197.461  0.00  0.00    +0.099 A 
ATOM      6  N   LIG    1       26.698  14.984 197.514  0.00  0.00    -0.227 NA
ENDROOT
BRANCH   5   7
ATOM      7  C   LIG    1       24.504  14.810 198.647  0.00  0.00    +0.006 A 
ATOM      8  C   LIG    1       24.129  16.023 199.253  0.00  0.00    +0.059 A 
ATOM      9  C   LIG    1       23.339  15.985 200.391  0.00  0.00    +0.167 A 
ATOM     10  O   LIG    1       22.892  17.038 201.113  0.00  0.00    -0.453 OA
ATOM     11  C   LIG    1       22.091  16.468 202.220  0.00  0.00    +0.466 C 
ATOM     12  O   LIG    1       22.161  14.999 202.035  0.00  0.00    -0.453 OA
ATOM     13  C   LIG    1       22.911  14.797 200.931  0.00  0.00    +0.166 A 
ATOM     14  C   LIG    1       23.248  13.582 200.351  0.00  0.00    +0.050 A 
ATOM     15  C   LIG    1       24.043  13.597 199.204  0.00  0.00    +0.014 A 
ENDBRANCH   5   7
BRANCH   1  19
ATOM     16  C   LIG    1       31.120  15.509 194.794  0.00  0.00    +0.037 A 
ATOM     17  C   LIG    1       30.015  16.037 194.108  0.00  0.00    +0.014 A 
ATOM     18  C   LIG    1       28.726  15.862 194.596  0.00  0.00    +0.012 A 
ATOM     19  C   LIG    1       28.491  15.160 195.787  0.00  0.00    +0.017 A 
ATOM     20  C   LIG    1       29.598  14.637 196.476  0.00  0.00    +0.012 A 
ATOM     21  C   LIG    1       30.887  14.812 195.988  0.00  0.00    +0.014 A 
BRANCH  16  25
ATOM     22  N   LIG    1       32.969  14.912 193.288  0.00  0.00    -0.325 N 
ATOM     23  H   LIG    1       32.427  14.133 192.899  0.00  0.00    +0.145 HD
ATOM     24  H   LIG    1       33.955  15.042 193.030  0.00  0.00    +0.145 HD
ATOM     25  C   LIG    1       32.491  15.669 194.300  0.00  0.00    +0.242 C 
ATOM     26  O   LIG    1       33.296  16.464 194.753  0.00  0.00    -0.270 OA
ENDBRANCH  16  25
ENDBRANCH   1  19
BRANCH   4  27
ATOM     27  C   LIG    1       23.685  14.412 195.497  0.00  0.00    +0.089 A 
ATOM     28  N   LIG    1       23.454  15.039 194.326  0.00  0.00    -0.253 NA
ATOM     29  C   LIG    1       22.311  14.838 193.674  0.00  0.00    +0.111 A 
ATOM     30  C   LIG    1       21.328  13.981 194.161  0.00  0.00    +0.020 A 
ATOM     31  C   LIG    1       21.541  13.308 195.355  0.00  0.00    +0.004 A 
ATOM     32  C   LIG    1       22.736  13.525 196.021  0.00  0.00    +0.030 A 
ENDBRANCH   4  27
TORSDOF 4
