REMARK VINA RESULT:      -6.7      0.000      0.000
REMARK  Name = ZINC000006082796
REMARK                            x       y       z     vdW  Elec       q    Type
REMARK                         _______ _______ _______ _____ _____    ______ ____
ROOT
ATOM      1  N   LIG    1       26.692  44.131 180.663  0.00  0.00    -0.306 N 
ENDROOT
BRANCH   1   2
ATOM      2  C   LIG    1       25.498  44.777 180.948  0.00  0.00    +0.133 A 
ATOM      3  C   LIG    1       24.243  44.122 180.920  0.00  0.00    +0.051 A 
ATOM      4  C   LIG    1       23.855  42.767 180.681  0.00  0.00    -0.025 A 
ATOM      5  C   LIG    1       24.810  41.618 180.407  0.00  0.00    +0.037 C 
ATOM      6  C   LIG    1       24.050  40.291 180.579  0.00  0.00    +0.005 C 
ATOM      7  C   LIG    1       22.698  40.314 179.848  0.00  0.00    +0.005 C 
ATOM      8  C   LIG    1       21.736  41.312 180.513  0.00  0.00    +0.043 C 
ATOM      9  C   LIG    1       22.500  42.603 180.714  0.00  0.00    -0.004 A 
ATOM     10  S   LIG    1       21.655  44.074 181.071  0.00  0.00    -0.073 S 
ATOM     11  C   LIG    1       23.150  44.935 181.173  0.00  0.00    +0.114 A 
ATOM     12  N   LIG    1       23.258  46.251 181.477  0.00  0.00    -0.228 NA
ATOM     13  C   LIG    1       24.467  46.754 181.514  0.00  0.00    +0.224 A 
ATOM     14  N   LIG    1       25.596  46.055 181.259  0.00  0.00    -0.220 NA
ENDBRANCH   1   2
BRANCH   1  16
ATOM     15  C   LIG    1       26.698  43.937 178.278  0.00  0.00    +0.024 C 
ATOM     16  C   LIG    1       27.385  44.634 179.454  0.00  0.00    +0.104 C 
ENDBRANCH   1  16
BRANCH   1  17
ATOM     17  C   LIG    1       27.599  44.083 181.868  0.00  0.00    +0.202 C 
BRANCH  17  18
ATOM     18  C   LIG    1       27.406  42.780 182.654  0.00  0.00    +0.231 C 
ATOM     19  N   LIG    1       26.519  42.794 183.647  0.00  0.00    -0.309 N 
ATOM     20  H   LIG    1       25.947  43.622 183.716  0.00  0.00    +0.149 HD
ATOM     21  O   LIG    1       28.024  41.754 182.388  0.00  0.00    -0.274 OA
BRANCH  19  22
ATOM     22  C   LIG    1       26.184  41.631 184.442  0.00  0.00    +0.146 C 
BRANCH  22  23
ATOM     23  C   LIG    1       25.080  42.129 185.345  0.00  0.00    +0.007 A 
ATOM     24  S   LIG    1       24.003  43.381 184.825  0.00  0.00    -0.100 S 
ATOM     25  C   LIG    1       23.157  43.323 186.330  0.00  0.00    +0.045 A 
ATOM     26  C   LIG    1       23.689  42.392 187.174  0.00  0.00    +0.008 A 
ATOM     27  C   LIG    1       24.786  41.714 186.614  0.00  0.00    +0.013 A 
ENDBRANCH  22  23
ENDBRANCH  19  22
ENDBRANCH  17  18
ENDBRANCH   1  17
TORSDOF 6
