REMARK VINA RESULT:      -7.5     30.550     31.865
REMARK  Name = ZINC000049399659
REMARK                            x       y       z     vdW  Elec       q    Type
REMARK                         _______ _______ _______ _____ _____    ______ ____
ROOT
ATOM      1  C   LIG    1       27.073  16.492 188.994  0.00  0.00    +0.173 C 
ENDROOT
BRANCH   1   4
ATOM      2  N   LIG    1       26.660  16.005 191.369  0.00  0.00    -0.282 N 
ATOM      3  H   LIG    1       25.780  15.617 190.998  0.00  0.00    +0.155 HD
ATOM      4  C   LIG    1       27.464  16.631 190.449  0.00  0.00    +0.228 C 
ATOM      5  O   LIG    1       28.435  17.271 190.795  0.00  0.00    -0.275 OA
BRANCH   2   7
ATOM      6  C   LIG    1       25.633  15.520 193.487  0.00  0.00    +0.141 A 
ATOM      7  C   LIG    1       26.788  15.902 192.784  0.00  0.00    +0.077 A 
ATOM      8  C   LIG    1       27.981  16.136 193.471  0.00  0.00    +0.047 A 
ATOM      9  C   LIG    1       28.005  16.004 194.860  0.00  0.00    +0.043 A 
ATOM     10 CL   LIG    1       29.475  16.294 195.727  0.00  0.00    -0.083 Cl
ATOM     11  C   LIG    1       26.854  15.634 195.562  0.00  0.00    +0.024 A 
ATOM     12  C   LIG    1       25.666  15.390 194.876  0.00  0.00    +0.049 A 
BRANCH   6  14
ATOM     13  C   LIG    1       23.191  14.907 193.335  0.00  0.00    +0.277 C 
ATOM     14  O   LIG    1       24.467  15.273 192.759  0.00  0.00    -0.493 OA
ENDBRANCH   6  14
ENDBRANCH   2   7
ENDBRANCH   1   4
BRANCH   1  15
ATOM     15  S   LIG    1       28.122  17.672 188.061  0.00  0.00    -0.077 S 
BRANCH  15  16
ATOM     16  C   LIG    1       27.904  17.151 186.419  0.00  0.00    +0.190 A 
ATOM     17  N   LIG    1       28.940  17.270 185.588  0.00  0.00    -0.207 NA
ATOM     18  C   LIG    1       28.781  16.873 184.337  0.00  0.00    +0.126 A 
ATOM     19  C   LIG    1       27.571  16.344 183.899  0.00  0.00    +0.063 A 
ATOM     20  C   LIG    1       26.537  16.255 184.804  0.00  0.00    +0.117 A 
ATOM     21  N   LIG    1       26.704  16.659 186.056  0.00  0.00    -0.230 NA
BRANCH  18  22
ATOM     22  N   LIG    1       29.854  16.988 183.459  0.00  0.00    -0.315 N 
ATOM     23  C   LIG    1       29.516  17.056 182.025  0.00  0.00    +0.106 C 
ATOM     24  C   LIG    1       30.742  16.510 181.271  0.00  0.00    +0.019 C 
ATOM     25  C   LIG    1       31.945  17.410 181.606  0.00  0.00    +0.003 C 
ATOM     26  C   LIG    1       32.215  17.371 183.120  0.00  0.00    +0.019 C 
ATOM     27  C   LIG    1       30.961  17.888 183.851  0.00  0.00    +0.106 C 
ENDBRANCH  18  22
ENDBRANCH  15  16
ENDBRANCH   1  15
TORSDOF 6
