REMARK VINA RESULT:      -8.9      0.000      0.000
REMARK  Name = ZINC000000603759
REMARK                            x       y       z     vdW  Elec       q    Type
REMARK                         _______ _______ _______ _____ _____    ______ ____
ROOT
ATOM      1  C   LIG    1       24.047  43.219 183.210  0.00  0.00    +0.139 A 
ATOM      2  C   LIG    1       25.254  43.602 182.565  0.00  0.00    +0.050 A 
ATOM      3  C   LIG    1       26.481  44.163 182.963  0.00  0.00    +0.015 A 
ATOM      4  C   LIG    1       27.427  44.388 181.983  0.00  0.00    +0.020 A 
ATOM      5  C   LIG    1       27.152  44.063 180.633  0.00  0.00    +0.113 A 
ATOM      6  N   LIG    1       26.006  43.535 180.249  0.00  0.00    -0.236 NA
ATOM      7  C   LIG    1       25.093  43.314 181.229  0.00  0.00    +0.159 A 
ATOM      8  N   LIG    1       23.843  42.778 181.113  0.00  0.00    -0.241 N 
ATOM      9  N   LIG    1       23.200  42.723 182.312  0.00  0.00    -0.165 NA
ENDROOT
BRANCH   1  14
ATOM     10  C   LIG    1       23.833  42.474 186.771  0.00  0.00    +0.128 A 
ATOM     11  C   LIG    1       23.214  43.607 187.315  0.00  0.00    +0.040 A 
ATOM     12  C   LIG    1       22.884  44.603 186.410  0.00  0.00    +0.125 A 
ATOM     13  N   LIG    1       23.150  44.469 185.121  0.00  0.00    -0.234 NA
ATOM     14  C   LIG    1       23.759  43.346 184.651  0.00  0.00    +0.183 A 
ATOM     15  N   LIG    1       24.096  42.352 185.492  0.00  0.00    -0.211 NA
BRANCH  11  16
ATOM     16  C   LIG    1       22.932  43.747 188.737  0.00  0.00    -0.010 A 
ATOM     17  C   LIG    1       21.638  43.972 189.209  0.00  0.00    +0.028 A 
ATOM     18  C   LIG    1       21.404  44.097 190.572  0.00  0.00    +0.111 A 
ATOM     19  N   LIG    1       22.391  44.010 191.462  0.00  0.00    -0.263 NA
ATOM     20  C   LIG    1       23.638  43.794 191.044  0.00  0.00    +0.111 A 
ATOM     21  C   LIG    1       23.943  43.658 189.696  0.00  0.00    +0.028 A 
ENDBRANCH  11  16
BRANCH  10  22
ATOM     22  N   LIG    1       24.202  41.397 187.506  0.00  0.00    -0.343 N 
ATOM     23  H   LIG    1       25.156  41.394 187.887  0.00  0.00    +0.144 HD
ATOM     24  H   LIG    1       23.449  41.029 188.104  0.00  0.00    +0.144 HD
ENDBRANCH  10  22
ENDBRANCH   1  14
BRANCH   8  25
ATOM     25  C   LIG    1       23.245  42.303 179.868  0.00  0.00    +0.183 C 
BRANCH  25  26
ATOM     26  C   LIG    1       22.104  43.252 179.522  0.00  0.00    +0.009 A 
ATOM     27  C   LIG    1       20.773  42.853 179.634  0.00  0.00    +0.128 A 
ATOM     28  F   LIG    1       20.476  41.595 180.047  0.00  0.00    -0.205 F 
ATOM     29  C   LIG    1       19.712  43.694 179.323  0.00  0.00    +0.039 A 
ATOM     30  C   LIG    1       19.985  44.984 178.879  0.00  0.00    +0.003 A 
ATOM     31  C   LIG    1       21.307  45.408 178.752  0.00  0.00    +0.000 A 
ATOM     32  C   LIG    1       22.360  44.549 179.069  0.00  0.00    +0.008 A 
ENDBRANCH  25  26
ENDBRANCH   8  25
TORSDOF 5
