REMARK VINA RESULT:      -7.1     25.010     27.569
REMARK  Name = ZINC000006087397
REMARK                            x       y       z     vdW  Elec       q    Type
REMARK                         _______ _______ _______ _____ _____    ______ ____
ROOT
ATOM      1  C   LIG    1       23.274  41.352 211.352  0.00  0.00    +0.214 C 
ENDROOT
BRANCH   1   7
ATOM      2  C   LIG    1       19.211  38.838 212.124  0.00  0.00    +0.010 C 
ATOM      3  C   LIG    1       18.764  39.570 210.839  0.00  0.00    +0.018 C 
ATOM      4  C   LIG    1       19.980  40.117 210.024  0.00  0.00    +0.115 C 
ATOM      5  C   LIG    1       20.830  41.083 210.843  0.00  0.00    +0.247 C 
ATOM      6  O   LIG    1       20.505  42.098 211.432  0.00  0.00    -0.273 OA
ATOM      7  N   LIG    1       22.111  40.624 210.832  0.00  0.00    -0.215 N 
ATOM      8  C   LIG    1       22.186  39.443 210.140  0.00  0.00    +0.310 C 
ATOM      9  O   LIG    1       23.200  38.801 209.939  0.00  0.00    -0.252 OA
ATOM     10  N   LIG    1       20.958  39.082 209.716  0.00  0.00    -0.285 N 
ATOM     11  H   LIG    1       20.860  38.381 208.974  0.00  0.00    +0.151 HD
ATOM     12  C   LIG    1       19.517  40.812 208.718  0.00  0.00    +0.035 C 
ATOM     13  C   LIG    1       18.683  39.827 207.876  0.00  0.00    +0.003 C 
ATOM     14  C   LIG    1       17.483  39.289 208.667  0.00  0.00    +0.000 C 
ATOM     15  C   LIG    1       17.942  38.605 209.961  0.00  0.00    +0.006 C 
ENDBRANCH   1   7
BRANCH   1  16
ATOM     16  C   LIG    1       23.686  42.371 210.284  0.00  0.00    +0.238 C 
ATOM     17  N   LIG    1       23.877  43.729 210.574  0.00  0.00    -0.267 N 
ATOM     18  O   LIG    1       23.827  41.997 209.133  0.00  0.00    -0.274 OA
BRANCH  17  19
ATOM     19  C   LIG    1       24.325  44.669 209.591  0.00  0.00    +0.010 C 
ATOM     20  C   LIG    1       25.723  45.238 209.788  0.00  0.00    +0.051 C 
ATOM     21  C   LIG    1       25.799  46.578 209.024  0.00  0.00    +0.006 C 
ATOM     22  C   LIG    1       25.399  46.294 207.563  0.00  0.00    +0.004 C 
ATOM     23  C   LIG    1       23.876  46.044 207.518  0.00  0.00    +0.029 C 
ATOM     24  C   LIG    1       23.515  45.009 208.569  0.00  0.00    -0.008 C 
ENDBRANCH  17  19
BRANCH  17  25
ATOM     25  C   LIG    1       23.657  44.262 211.934  0.00  0.00    +0.187 C 
BRANCH  25  26
ATOM     26  C   LIG    1       22.675  45.406 211.771  0.00  0.00    +0.122 A 
ATOM     27  O   LIG    1       21.377  45.168 211.436  0.00  0.00    -0.466 OA
ATOM     28  C   LIG    1       20.749  46.368 211.369  0.00  0.00    +0.195 A 
ATOM     29  C   LIG    1       21.627  47.354 211.656  0.00  0.00    +0.041 A 
ATOM     30  C   LIG    1       22.857  46.739 211.913  0.00  0.00    +0.046 A 
ENDBRANCH  25  26
ENDBRANCH  17  25
ENDBRANCH   1  16
TORSDOF 5
