REMARK VINA RESULT:      -7.2     27.142     29.323
REMARK  Name = ZINC000000622956
REMARK                            x       y       z     vdW  Elec       q    Type
REMARK                         _______ _______ _______ _____ _____    ______ ____
ROOT
ATOM      1  C   LIG    1       25.030  42.452 212.283  0.00  0.00    +0.271 C 
ATOM      2  N   LIG    1       24.513  42.551 210.939  0.00  0.00    -0.157 N 
ATOM      3  C   LIG    1       23.846  41.476 210.582  0.00  0.00    +0.250 C 
ATOM      4  C   LIG    1       23.146  41.282 209.245  0.00  0.00    +0.124 C 
ATOM      5  C   LIG    1       21.622  41.329 209.503  0.00  0.00    +0.012 C 
ATOM      6  C   LIG    1       21.148  39.979 210.073  0.00  0.00    +0.004 C 
ATOM      7  C   LIG    1       21.630  39.638 211.499  0.00  0.00    +0.045 C 
ATOM      8  C   LIG    1       23.135  39.304 211.487  0.00  0.00    +0.236 C 
ATOM      9  N   LIG    1       23.842  40.590 211.544  0.00  0.00    -0.258 N 
ATOM     10  C   LIG    1       24.543  41.062 212.757  0.00  0.00    +0.323 C 
ENDROOT
BRANCH   1  11
ATOM     11  C   LIG    1       26.560  42.544 212.307  0.00  0.00    +0.034 A 
ATOM     12  C   LIG    1       27.363  41.513 211.786  0.00  0.00    +0.060 A 
ATOM     13  C   LIG    1       28.741  41.657 211.827  0.00  0.00    +0.167 A 
ATOM     14  O   LIG    1       29.662  40.778 211.379  0.00  0.00    -0.453 OA
ATOM     15  C   LIG    1       30.985  41.402 211.638  0.00  0.00    +0.466 C 
ATOM     16  O   LIG    1       30.678  42.700 212.286  0.00  0.00    -0.453 OA
ATOM     17  C   LIG    1       29.333  42.776 212.353  0.00  0.00    +0.166 A 
ATOM     18  C   LIG    1       28.574  43.814 212.868  0.00  0.00    +0.050 A 
ATOM     19  C   LIG    1       27.184  43.694 212.840  0.00  0.00    +0.014 A 
ENDBRANCH   1  11
BRANCH   2  20
ATOM     20  C   LIG    1       24.637  43.714 210.142  0.00  0.00    +0.124 A 
ATOM     21  C   LIG    1       25.737  43.824 209.293  0.00  0.00    +0.050 A 
ATOM     22  C   LIG    1       25.872  44.965 208.506  0.00  0.00    +0.024 A 
ATOM     23  C   LIG    1       24.912  45.979 208.577  0.00  0.00    +0.041 A 
ATOM     24 CL   LIG    1       25.084  47.395 207.598  0.00  0.00    -0.084 Cl
ATOM     25  C   LIG    1       23.815  45.857 209.436  0.00  0.00    +0.024 A 
ATOM     26  C   LIG    1       23.674  44.719 210.225  0.00  0.00    +0.050 A 
ENDBRANCH   2  20
BRANCH   1  27
ATOM     27  O   LIG    1       24.413  43.491 213.032  0.00  0.00    -0.347 OA
ATOM     28  H   LIG    1       25.066  43.828 213.664  0.00  0.00    +0.215 HD
ENDBRANCH   1  27
TORSDOF 3
