REMARK VINA RESULT:      -6.5      4.694      7.090
REMARK  Name = ZINC000000538069
REMARK                            x       y       z     vdW  Elec       q    Type
REMARK                         _______ _______ _______ _____ _____    ______ ____
ROOT
ATOM      1  C   LIG    1       22.794  50.216 180.670  0.00  0.00    +0.248 C 
ATOM      2  N   LIG    1       21.824  50.607 181.545  0.00  0.00    -0.307 N 
ATOM      3  H   LIG    1       21.717  50.019 182.388  0.00  0.00    +0.149 HD
ATOM      4  O   LIG    1       22.773  50.751 179.564  0.00  0.00    -0.270 OA
ENDROOT
BRANCH   1   9
ATOM      5  C   LIG    1       25.812  47.341 181.703  0.00  0.00    +0.049 A 
ATOM      6  C   LIG    1       25.819  47.994 180.453  0.00  0.00    +0.063 A 
ATOM      7 CL   LIG    1       27.065  47.668 179.293  0.00  0.00    -0.082 Cl
ATOM      8  C   LIG    1       24.827  48.917 180.146  0.00  0.00    +0.038 A 
ATOM      9  C   LIG    1       23.802  49.221 181.061  0.00  0.00    +0.080 A 
ATOM     10  C   LIG    1       23.804  48.540 182.302  0.00  0.00    +0.134 A 
ATOM     11  C   LIG    1       24.797  47.611 182.621  0.00  0.00    +0.070 A 
BRANCH   5  13
ATOM     12  C   LIG    1       28.111  46.886 182.528  0.00  0.00    +0.125 C 
ATOM     13  N   LIG    1       26.825  46.412 182.005  0.00  0.00    -0.346 N 
ATOM     14  H   LIG    1       26.924  45.694 181.263  0.00  0.00    +0.146 HD
ENDBRANCH   5  13
BRANCH  10  15
ATOM     15  O   LIG    1       22.801  48.781 183.227  0.00  0.00    -0.494 OA
ATOM     16  C   LIG    1       22.926  49.040 184.645  0.00  0.00    +0.277 C 
ENDBRANCH  10  15
ENDBRANCH   1   9
BRANCH   2  17
ATOM     17  C   LIG    1       20.591  51.295 181.154  0.00  0.00    +0.091 C 
ATOM     18  C   LIG    1       19.353  50.620 181.786  0.00  0.00    +0.074 C 
ATOM     19  C   LIG    1       19.371  49.088 181.630  0.00  0.00    +0.026 C 
ATOM     20  N   LIG    1       19.474  50.935 183.216  0.00  0.00    -0.294 NA
ATOM     21  C   LIG    1       20.222  52.210 183.354  0.00  0.00    +0.087 C 
ATOM     22  C   LIG    1       20.589  52.616 181.912  0.00  0.00    +0.039 C 
BRANCH  20  23
ATOM     23  C   LIG    1       18.163  50.979 183.896  0.00  0.00    +0.120 C 
BRANCH  23  24
ATOM     24  C   LIG    1       18.400  50.387 185.275  0.00  0.00    -0.033 A 
ATOM     25  C   LIG    1       17.783  50.930 186.402  0.00  0.00    +0.005 A 
ATOM     26  C   LIG    1       18.004  50.374 187.660  0.00  0.00    +0.000 A 
ATOM     27  C   LIG    1       18.843  49.272 187.797  0.00  0.00    +0.000 A 
ATOM     28  C   LIG    1       19.461  48.727 186.677  0.00  0.00    +0.000 A 
ATOM     29  C   LIG    1       19.240  49.283 185.421  0.00  0.00    +0.005 A 
ENDBRANCH  23  24
ENDBRANCH  20  23
ENDBRANCH   2  17
TORSDOF 6
