REMARK VINA RESULT:      -6.7     11.444     14.037
REMARK  Name = ZINC000000538627
REMARK                            x       y       z     vdW  Elec       q    Type
REMARK                         _______ _______ _______ _____ _____    ______ ____
ROOT
ATOM      1  C   LIG    1       29.186  17.028 196.833  0.00  0.00    +0.166 C 
ENDROOT
BRANCH   1   2
ATOM      2  C   LIG    1       28.025  16.377 197.618  0.00  0.00    -0.007 A 
ATOM      3  C   LIG    1       28.113  15.973 198.958  0.00  0.00    +0.007 A 
ATOM      4  C   LIG    1       27.024  15.386 199.595  0.00  0.00    +0.000 A 
ATOM      5  C   LIG    1       25.832  15.192 198.906  0.00  0.00    +0.000 A 
ATOM      6  C   LIG    1       25.729  15.586 197.579  0.00  0.00    +0.000 A 
ATOM      7  C   LIG    1       26.818  16.173 196.941  0.00  0.00    +0.007 A 
ENDBRANCH   1   2
BRANCH   1   8
ATOM      8  C   LIG    1       29.636  18.301 197.586  0.00  0.00    -0.007 A 
ATOM      9  C   LIG    1       30.955  18.447 198.032  0.00  0.00    +0.007 A 
ATOM     10  C   LIG    1       31.348  19.582 198.734  0.00  0.00    +0.000 A 
ATOM     11  C   LIG    1       30.428  20.590 199.001  0.00  0.00    +0.000 A 
ATOM     12  C   LIG    1       29.117  20.462 198.560  0.00  0.00    +0.000 A 
ATOM     13  C   LIG    1       28.723  19.328 197.858  0.00  0.00    +0.007 A 
ENDBRANCH   1   8
BRANCH   1  15
ATOM     14  C   LIG    1       29.118  18.670 194.891  0.00  0.00    +0.195 C 
ATOM     15  O   LIG    1       28.648  17.430 195.507  0.00  0.00    -0.363 OA
ENDBRANCH   1  15
BRANCH   1  16
ATOM     16  C   LIG    1       30.400  16.074 196.642  0.00  0.00    +0.325 C 
BRANCH  16  17
ATOM     17  C   LIG    1       29.876  14.672 196.383  0.00  0.00    +0.350 C 
ATOM     18  O   LIG    1       30.044  13.745 197.169  0.00  0.00    -0.247 OA
BRANCH  17  19
ATOM     19  O   LIG    1       29.243  14.387 195.209  0.00  0.00    -0.478 OA
ATOM     20  H   LIG    1       29.053  13.448 195.141  0.00  0.00    +0.295 HD
ENDBRANCH  17  19
ENDBRANCH  16  17
BRANCH  16  21
ATOM     21  O   LIG    1       31.203  16.494 195.470  0.00  0.00    -0.444 OA
BRANCH  21  22
ATOM     22  C   LIG    1       32.521  16.223 195.385  0.00  0.00    +0.319 A 
ATOM     23  N   LIG    1       33.211  16.051 196.509  0.00  0.00    -0.200 NA
ATOM     24  C   LIG    1       34.497  15.768 196.413  0.00  0.00    +0.045 A 
ATOM     25  C   LIG    1       35.283  15.569 197.685  0.00  0.00    +0.066 C 
ATOM     26  C   LIG    1       35.090  15.678 195.162  0.00  0.00    +0.046 A 
ATOM     27  C   LIG    1       34.311  15.881 194.031  0.00  0.00    +0.045 A 
ATOM     28  C   LIG    1       34.888  15.785 192.640  0.00  0.00    +0.066 C 
ATOM     29  N   LIG    1       33.025  16.150 194.160  0.00  0.00    -0.200 NA
ENDBRANCH  21  22
ENDBRANCH  16  21
ENDBRANCH   1  16
TORSDOF 8
