REMARK VINA RESULT:      -7.4     26.989     30.374
REMARK  Name = ZINC000000538144
REMARK                            x       y       z     vdW  Elec       q    Type
REMARK                         _______ _______ _______ _____ _____    ______ ____
ROOT
ATOM      1  C   LIG    1       24.619  15.626 196.068  0.00  0.00    +0.163 A 
ATOM      2  C   LIG    1       25.174  15.298 197.346  0.00  0.00    +0.162 A 
ATOM      3  C   LIG    1       26.542  15.155 197.506  0.00  0.00    +0.059 A 
ATOM      4  C   LIG    1       27.391  15.344 196.401  0.00  0.00    +0.007 A 
ATOM      5  C   LIG    1       28.796  15.291 196.231  0.00  0.00    -0.018 A 
ATOM      6  C   LIG    1       29.075  15.573 194.929  0.00  0.00    +0.017 A 
ATOM      7  C   LIG    1       30.401  15.648 194.203  0.00  0.00    +0.063 C 
ATOM      8  N   LIG    1       27.878  15.789 194.274  0.00  0.00    -0.358 N 
ATOM      9  H   LIG    1       27.774  16.014 193.273  0.00  0.00    +0.166 HD
ATOM     10  C   LIG    1       26.832  15.660 195.169  0.00  0.00    +0.051 A 
ATOM     11  C   LIG    1       25.452  15.806 194.969  0.00  0.00    +0.075 A 
ENDROOT
BRANCH   1  13
ATOM     12  C   LIG    1       22.351  14.808 195.299  0.00  0.00    +0.277 C 
ATOM     13  O   LIG    1       23.241  15.766 195.916  0.00  0.00    -0.491 OA
ENDBRANCH   1  13
BRANCH   2  14
ATOM     14  O   LIG    1       24.422  15.102 198.507  0.00  0.00    -0.491 OA
ATOM     15  C   LIG    1       24.845  14.495 199.748  0.00  0.00    +0.277 C 
ENDBRANCH   2  14
BRANCH   5  16
ATOM     16  C   LIG    1       29.792  14.990 197.330  0.00  0.00    +0.053 C 
BRANCH  16  17
ATOM     17  C   LIG    1       30.529  16.315 197.583  0.00  0.00    +0.089 C 
BRANCH  17  18
ATOM     18  N   LIG    1       30.538  16.541 199.054  0.00  0.00    -0.299 NA
ATOM     19  C   LIG    1       29.172  16.586 199.679  0.00  0.00    +0.103 C 
ATOM     20  C   LIG    1       28.390  17.857 199.242  0.00  0.00    +0.120 C 
ATOM     21  N   LIG    1       29.195  19.049 199.611  0.00  0.00    -0.327 N 
ATOM     22  C   LIG    1       30.519  19.041 198.944  0.00  0.00    +0.120 C 
ATOM     23  C   LIG    1       31.286  17.780 199.427  0.00  0.00    +0.103 C 
BRANCH  21  24
ATOM     24  C   LIG    1       28.454  20.252 199.610  0.00  0.00    +0.030 A 
ATOM     25  C   LIG    1       29.068  21.505 199.746  0.00  0.00    +0.023 A 
ATOM     26  C   LIG    1       28.294  22.660 199.731  0.00  0.00    +0.002 A 
ATOM     27  C   LIG    1       26.911  22.577 199.582  0.00  0.00    +0.000 A 
ATOM     28  C   LIG    1       26.300  21.332 199.451  0.00  0.00    +0.002 A 
ATOM     29  C   LIG    1       27.066  20.173 199.469  0.00  0.00    +0.023 A 
ENDBRANCH  21  24
ENDBRANCH  17  18
ENDBRANCH  16  17
ENDBRANCH   5  16
TORSDOF 6
