REMARK VINA RESULT:      -7.3     30.012     31.877
REMARK  Name = ZINC000070728784
REMARK                            x       y       z     vdW  Elec       q    Type
REMARK                         _______ _______ _______ _____ _____    ______ ____
ROOT
ATOM      1  C   LIG    1       31.638  18.611 185.770  0.00  0.00    +0.251 C 
ATOM      2  N   LIG    1       32.994  18.601 185.532  0.00  0.00    -0.261 N 
ATOM      3  H   LIG    1       33.279  18.235 184.616  0.00  0.00    +0.157 HD
ATOM      4  O   LIG    1       31.204  19.220 186.739  0.00  0.00    -0.270 OA
ENDROOT
BRANCH   1   6
ATOM      5  C   LIG    1       29.499  17.364 185.241  0.00  0.00    +0.020 A 
ATOM      6  C   LIG    1       30.768  17.874 184.862  0.00  0.00    +0.050 A 
ATOM      7  C   LIG    1       31.199  17.675 183.541  0.00  0.00    +0.014 A 
ATOM      8  C   LIG    1       30.390  17.048 182.604  0.00  0.00    +0.001 A 
ATOM      9  C   LIG    1       29.124  16.600 182.973  0.00  0.00    +0.001 A 
ATOM     10  C   LIG    1       28.681  16.757 184.278  0.00  0.00    +0.015 A 
BRANCH   5  11
ATOM     11  S   LIG    1       28.880  17.422 186.875  0.00  0.00    -0.122 S 
BRANCH  11  13
ATOM     12  C   LIG    1       26.962  15.855 187.921  0.00  0.00    +0.019 C 
ATOM     13  C   LIG    1       27.187  16.757 186.708  0.00  0.00    +0.045 C 
ATOM     14  C   LIG    1       26.250  17.965 186.722  0.00  0.00    +0.019 C 
ENDBRANCH  11  13
ENDBRANCH   5  11
ENDBRANCH   1   6
BRANCH   2  15
ATOM     15  C   LIG    1       34.021  19.090 186.349  0.00  0.00    +0.165 A 
ATOM     16  S   LIG    1       34.575  20.690 186.030  0.00  0.00    -0.060 S 
ATOM     17  C   LIG    1       35.697  20.478 187.306  0.00  0.00    +0.073 A 
ATOM     18  C   LIG    1       35.579  19.244 187.866  0.00  0.00    +0.064 A 
ATOM     19  N   LIG    1       34.615  18.448 187.312  0.00  0.00    -0.228 NA
BRANCH  18  20
ATOM     20  C   LIG    1       36.431  18.750 189.021  0.00  0.00    +0.140 C 
BRANCH  20  21
ATOM     21  N   LIG    1       36.421  17.255 188.992  0.00  0.00    -0.292 NA
ATOM     22  C   LIG    1       36.272  16.626 190.345  0.00  0.00    +0.113 C 
ATOM     23  C   LIG    1       37.570  16.836 191.165  0.00  0.00    +0.175 C 
ATOM     24  O   LIG    1       38.643  16.252 190.427  0.00  0.00    -0.377 OA
ATOM     25  C   LIG    1       38.873  16.906 189.181  0.00  0.00    +0.175 C 
ATOM     26  C   LIG    1       37.615  16.693 188.301  0.00  0.00    +0.113 C 
ENDBRANCH  20  21
ENDBRANCH  18  20
ENDBRANCH   2  15
TORSDOF 6
