REMARK VINA RESULT:      -8.1      0.000      0.000
REMARK  Name = ZINC000022625070
REMARK                            x       y       z     vdW  Elec       q    Type
REMARK                         _______ _______ _______ _____ _____    ______ ____
ROOT
ATOM      1  C   LIG    1       27.953  32.403 202.772  0.00  0.00    +0.171 A 
ATOM      2  C   LIG    1       26.776  32.859 202.179  0.00  0.00    +0.032 A 
ATOM      3  C   LIG    1       25.307  32.547 202.406  0.00  0.00    +0.046 C 
ATOM      4  C   LIG    1       24.480  33.811 202.041  0.00  0.00    +0.040 C 
ATOM      5  C   LIG    1       24.901  34.391 200.682  0.00  0.00    -0.036 A 
ATOM      6  C   LIG    1       26.254  34.370 200.302  0.00  0.00    +0.027 A 
ATOM      7  C   LIG    1       26.659  34.975 199.111  0.00  0.00    +0.057 A 
ATOM      8  C   LIG    1       25.704  35.581 198.295  0.00  0.00    +0.121 A 
ATOM      9  C   LIG    1       24.359  35.592 198.655  0.00  0.00    +0.046 A 
ATOM     10  C   LIG    1       23.962  35.001 199.852  0.00  0.00    +0.008 A 
ATOM     11  C   LIG    1       27.157  33.675 201.187  0.00  0.00    +0.171 A 
ATOM     12  O   LIG    1       28.496  33.712 201.180  0.00  0.00    -0.354 OA
ATOM     13  N   LIG    1       28.979  32.938 202.147  0.00  0.00    -0.073 NA
ENDROOT
BRANCH   1  16
ATOM     14  N   LIG    1       27.915  30.134 203.647  0.00  0.00    -0.307 N 
ATOM     15  H   LIG    1       27.662  29.886 202.683  0.00  0.00    +0.149 HD
ATOM     16  C   LIG    1       28.067  31.471 203.900  0.00  0.00    +0.266 C 
ATOM     17  O   LIG    1       28.283  31.810 205.062  0.00  0.00    -0.268 OA
BRANCH  14  18
ATOM     18  C   LIG    1       27.781  29.125 204.679  0.00  0.00    +0.070 C 
ATOM     19  C   LIG    1       28.814  28.045 204.359  0.00  0.00    +0.028 C 
BRANCH  18  20
ATOM     20  C   LIG    1       26.329  28.612 204.659  0.00  0.00    +0.023 C 
BRANCH  20  21
ATOM     21  C   LIG    1       25.983  27.525 205.701  0.00  0.00    +0.017 C 
BRANCH  21  22
ATOM     22  C   LIG    1       25.781  26.209 204.911  0.00  0.00    +0.084 C 
BRANCH  22  23
ATOM     23  N   LIG    1       24.440  26.201 204.269  0.00  0.00    -0.303 NA
BRANCH  23  25
ATOM     24  C   LIG    1       25.357  24.201 203.371  0.00  0.00    +0.020 C 
ATOM     25  C   LIG    1       24.038  24.865 203.772  0.00  0.00    +0.081 C 
ENDBRANCH  23  25
BRANCH  23  26
ATOM     26  C   LIG    1       23.398  26.866 205.075  0.00  0.00    +0.081 C 
ATOM     27  C   LIG    1       22.446  27.503 204.056  0.00  0.00    +0.020 C 
ENDBRANCH  23  26
ENDBRANCH  22  23
ENDBRANCH  21  22
ENDBRANCH  20  21
ENDBRANCH  18  20
ENDBRANCH  14  18
ENDBRANCH   1  16
BRANCH   8  28
ATOM     28  O   LIG    1       26.040  36.189 197.106  0.00  0.00    -0.495 OA
ATOM     29  C   LIG    1       25.961  35.567 195.803  0.00  0.00    +0.277 C 
ENDBRANCH   8  28
TORSDOF 9
