REMARK VINA RESULT:      -6.4     23.086     25.087
REMARK  Name = ZINC000000538069
REMARK                            x       y       z     vdW  Elec       q    Type
REMARK                         _______ _______ _______ _____ _____    ______ ____
ROOT
ATOM      1  C   LIG    1       22.895  49.641 211.805  0.00  0.00    +0.248 C 
ATOM      2  N   LIG    1       23.698  49.189 210.801  0.00  0.00    -0.307 N 
ATOM      3  H   LIG    1       23.308  48.423 210.226  0.00  0.00    +0.149 HD
ATOM      4  O   LIG    1       23.429  50.370 212.638  0.00  0.00    -0.270 OA
ENDROOT
BRANCH   1   9
ATOM      5  C   LIG    1       18.712  48.690 212.000  0.00  0.00    +0.049 A 
ATOM      6  C   LIG    1       19.230  49.848 212.618  0.00  0.00    +0.063 A 
ATOM      7 CL   LIG    1       18.185  50.940 213.466  0.00  0.00    -0.082 Cl
ATOM      8  C   LIG    1       20.589  50.127 212.541  0.00  0.00    +0.038 A 
ATOM      9  C   LIG    1       21.474  49.275 211.854  0.00  0.00    +0.080 A 
ATOM     10  C   LIG    1       20.934  48.109 211.258  0.00  0.00    +0.134 A 
ATOM     11  C   LIG    1       19.570  47.820 211.328  0.00  0.00    +0.070 A 
BRANCH   5  13
ATOM     12  C   LIG    1       16.859  47.307 212.909  0.00  0.00    +0.125 C 
ATOM     13  N   LIG    1       17.333  48.421 212.081  0.00  0.00    -0.346 N 
ATOM     14  H   LIG    1       16.875  48.466 211.152  0.00  0.00    +0.146 HD
ENDBRANCH   5  13
BRANCH  10  15
ATOM     15  O   LIG    1       21.766  47.221 210.594  0.00  0.00    -0.494 OA
ATOM     16  C   LIG    1       21.931  45.801 210.819  0.00  0.00    +0.277 C 
ENDBRANCH  10  15
ENDBRANCH   1   9
BRANCH   2  17
ATOM     17  C   LIG    1       25.163  49.190 210.852  0.00  0.00    +0.091 C 
ATOM     18  C   LIG    1       25.708  47.789 211.205  0.00  0.00    +0.074 C 
ATOM     19  C   LIG    1       24.975  47.152 212.400  0.00  0.00    +0.026 C 
ATOM     20  N   LIG    1       25.416  46.987 210.009  0.00  0.00    -0.294 NA
ATOM     21  C   LIG    1       25.389  47.893 208.833  0.00  0.00    +0.087 C 
ATOM     22  C   LIG    1       25.633  49.303 209.408  0.00  0.00    +0.039 C 
BRANCH  20  23
ATOM     23  C   LIG    1       26.367  45.870 209.833  0.00  0.00    +0.120 C 
BRANCH  23  24
ATOM     24  C   LIG    1       25.510  44.623 209.704  0.00  0.00    -0.033 A 
ATOM     25  C   LIG    1       25.245  43.819 210.812  0.00  0.00    +0.005 A 
ATOM     26  C   LIG    1       24.453  42.681 210.682  0.00  0.00    +0.000 A 
ATOM     27  C   LIG    1       23.922  42.341 209.441  0.00  0.00    +0.000 A 
ATOM     28  C   LIG    1       24.183  43.139 208.332  0.00  0.00    +0.000 A 
ATOM     29  C   LIG    1       24.975  44.274 208.463  0.00  0.00    +0.005 A 
ENDBRANCH  23  24
ENDBRANCH  20  23
ENDBRANCH   2  17
TORSDOF 6
