REMARK VINA RESULT:      -8.8     17.948     24.699
REMARK  Name = ZINC000009035748
REMARK                            x       y       z     vdW  Elec       q    Type
REMARK                         _______ _______ _______ _____ _____    ______ ____
ROOT
ATOM      1  C   LIG    1       22.742  44.428 189.999  0.00  0.00    +0.218 C 
ATOM      2  N   LIG    1       21.766  44.999 189.256  0.00  0.00    -0.297 N 
ATOM      3  C   LIG    1       22.150  45.556 187.933  0.00  0.00    +0.143 C 
ATOM      4  C   LIG    1       21.162  46.638 187.501  0.00  0.00    -0.025 A 
ATOM      5  C   LIG    1       21.319  47.205 186.237  0.00  0.00    +0.028 A 
ATOM      6  C   LIG    1       20.438  48.193 185.799  0.00  0.00    +0.034 A 
ATOM      7  C   LIG    1       19.403  48.637 186.624  0.00  0.00    +0.023 A 
ATOM      8  C   LIG    1       19.249  48.074 187.884  0.00  0.00    +0.006 A 
ATOM      9  C   LIG    1       20.118  47.075 188.327  0.00  0.00    -0.041 A 
ATOM     10  C   LIG    1       19.933  46.478 189.705  0.00  0.00    +0.054 C 
ATOM     11  C   LIG    1       20.325  44.997 189.593  0.00  0.00    +0.113 C 
ATOM     12  O   LIG    1       23.890  44.358 189.564  0.00  0.00    -0.275 OA
ENDROOT
BRANCH   6  13
ATOM     13  N   LIG    1       20.659  48.738 184.512  0.00  0.00    -0.283 N 
ATOM     14  H   LIG    1       21.527  49.270 184.369  0.00  0.00    +0.155 HD
ATOM     15  C   LIG    1       19.845  48.648 183.410  0.00  0.00    +0.255 C 
ATOM     16  O   LIG    1       18.795  48.040 183.454  0.00  0.00    -0.272 OA
BRANCH  15  17
ATOM     17  C   LIG    1       20.336  49.298 182.129  0.00  0.00    +0.324 C 
BRANCH  17  18
ATOM     18  O   LIG    1       21.369  48.425 181.560  0.00  0.00    -0.483 OA
BRANCH  18  19
ATOM     19  C   LIG    1       21.146  47.139 181.114  0.00  0.00    +0.121 A 
ATOM     20  C   LIG    1       20.327  46.989 179.997  0.00  0.00    +0.047 A 
ATOM     21  C   LIG    1       20.068  45.716 179.500  0.00  0.00    +0.023 A 
ATOM     22  C   LIG    1       20.628  44.598 180.124  0.00  0.00    +0.041 A 
ATOM     23 CL   LIG    1       20.303  43.014 179.507  0.00  0.00    -0.084 Cl
ATOM     24  C   LIG    1       21.448  44.753 181.245  0.00  0.00    +0.023 A 
ATOM     25  C   LIG    1       21.710  46.026 181.744  0.00  0.00    +0.047 A 
ENDBRANCH  18  19
ENDBRANCH  17  18
ENDBRANCH  15  17
ENDBRANCH   6  13
BRANCH   1  27
ATOM     26  C   LIG    1       23.644  43.053 191.967  0.00  0.00    +0.017 C 
ATOM     27  C   LIG    1       22.434  43.811 191.388  0.00  0.00    +0.069 C 
ATOM     28  C   LIG    1       22.001  44.862 192.429  0.00  0.00    +0.017 C 
ENDBRANCH   1  27
TORSDOF 5
