REMARK VINA RESULT:      -9.5     30.260     31.382
REMARK  Name = ZINC000000603769
REMARK                            x       y       z     vdW  Elec       q    Type
REMARK                         _______ _______ _______ _____ _____    ______ ____
ROOT
ATOM      1  C   LIG    1       21.627  46.606 186.616  0.00  0.00    +0.139 A 
ATOM      2  N   LIG    1       21.088  47.845 186.528  0.00  0.00    -0.336 N 
ATOM      3  H   LIG    1       20.752  48.423 187.314  0.00  0.00    +0.167 HD
ATOM      4  C   LIG    1       21.052  48.228 185.244  0.00  0.00    +0.093 A 
ATOM      5  C   LIG    1       21.554  47.157 184.544  0.00  0.00    +0.099 A 
ATOM      6  N   LIG    1       21.926  46.175 185.410  0.00  0.00    -0.227 NA
ENDROOT
BRANCH   5   7
ATOM      7  C   LIG    1       21.668  47.024 183.098  0.00  0.00    +0.006 A 
ATOM      8  C   LIG    1       20.531  47.153 182.282  0.00  0.00    +0.059 A 
ATOM      9  C   LIG    1       20.671  47.002 180.912  0.00  0.00    +0.167 A 
ATOM     10  O   LIG    1       19.697  47.079 179.976  0.00  0.00    -0.453 OA
ATOM     11  C   LIG    1       20.361  46.851 178.672  0.00  0.00    +0.466 C 
ATOM     12  O   LIG    1       21.790  46.628 178.996  0.00  0.00    -0.453 OA
ATOM     13  C   LIG    1       21.890  46.740 180.338  0.00  0.00    +0.166 A 
ATOM     14  C   LIG    1       23.037  46.622 181.110  0.00  0.00    +0.050 A 
ATOM     15  C   LIG    1       22.919  46.770 182.493  0.00  0.00    +0.014 A 
ENDBRANCH   5   7
BRANCH   1  19
ATOM     16  C   LIG    1       22.236  44.555 190.335  0.00  0.00    +0.037 A 
ATOM     17  C   LIG    1       23.049  44.300 189.220  0.00  0.00    +0.014 A 
ATOM     18  C   LIG    1       22.840  44.970 188.022  0.00  0.00    +0.012 A 
ATOM     19  C   LIG    1       21.818  45.921 187.891  0.00  0.00    +0.017 A 
ATOM     20  C   LIG    1       21.009  46.180 189.009  0.00  0.00    +0.012 A 
ATOM     21  C   LIG    1       21.217  45.510 190.208  0.00  0.00    +0.014 A 
BRANCH  16  25
ATOM     22  N   LIG    1       23.155  42.724 191.695  0.00  0.00    -0.325 N 
ATOM     23  H   LIG    1       23.517  42.257 190.857  0.00  0.00    +0.145 HD
ATOM     24  H   LIG    1       23.200  42.262 192.611  0.00  0.00    +0.145 HD
ATOM     25  C   LIG    1       22.425  43.858 191.612  0.00  0.00    +0.242 C 
ATOM     26  O   LIG    1       21.944  44.222 192.671  0.00  0.00    -0.270 OA
ENDBRANCH  16  25
ENDBRANCH   1  19
BRANCH   4  27
ATOM     27  C   LIG    1       20.576  49.548 184.884  0.00  0.00    +0.089 A 
ATOM     28  N   LIG    1       19.248  49.700 184.711  0.00  0.00    -0.253 NA
ATOM     29  C   LIG    1       18.749  50.888 184.378  0.00  0.00    +0.111 A 
ATOM     30  C   LIG    1       19.561  52.005 184.207  0.00  0.00    +0.020 A 
ATOM     31  C   LIG    1       20.930  51.887 184.395  0.00  0.00    +0.004 A 
ATOM     32  C   LIG    1       21.435  50.645 184.742  0.00  0.00    +0.030 A 
ENDBRANCH   4  27
TORSDOF 4
