REMARK VINA RESULT:      -7.0     25.599     28.368
REMARK  Name = ZINC000000538144
REMARK                            x       y       z     vdW  Elec       q    Type
REMARK                         _______ _______ _______ _____ _____    ______ ____
ROOT
ATOM      1  C   LIG    1       36.897  20.678 187.539  0.00  0.00    +0.163 A 
ATOM      2  C   LIG    1       38.263  20.995 187.827  0.00  0.00    +0.162 A 
ATOM      3  C   LIG    1       38.893  20.461 188.939  0.00  0.00    +0.059 A 
ATOM      4  C   LIG    1       38.182  19.591 189.785  0.00  0.00    +0.007 A 
ATOM      5  C   LIG    1       38.523  18.879 190.960  0.00  0.00    -0.018 A 
ATOM      6  C   LIG    1       37.430  18.171 191.358  0.00  0.00    +0.017 A 
ATOM      7  C   LIG    1       37.236  17.251 192.544  0.00  0.00    +0.063 C 
ATOM      8  N   LIG    1       36.407  18.432 190.467  0.00  0.00    -0.358 N 
ATOM      9  H   LIG    1       35.454  18.042 190.520  0.00  0.00    +0.166 HD
ATOM     10  C   LIG    1       36.856  19.298 189.488  0.00  0.00    +0.051 A 
ATOM     11  C   LIG    1       36.185  19.825 188.375  0.00  0.00    +0.075 A 
ENDROOT
BRANCH   1  13
ATOM     12  C   LIG    1       34.862  21.139 186.106  0.00  0.00    +0.277 C 
ATOM     13  O   LIG    1       36.271  21.222 186.419  0.00  0.00    -0.491 OA
ENDBRANCH   1  13
BRANCH   2  14
ATOM     14  O   LIG    1       39.061  21.836 187.047  0.00  0.00    -0.491 OA
ATOM     15  C   LIG    1       40.310  21.522 186.395  0.00  0.00    +0.277 C 
ENDBRANCH   2  14
BRANCH   5  16
ATOM     16  C   LIG    1       39.883  18.904 191.626  0.00  0.00    +0.053 C 
BRANCH  16  17
ATOM     17  C   LIG    1       39.824  20.072 192.623  0.00  0.00    +0.089 C 
BRANCH  17  18
ATOM     18  N   LIG    1       40.868  21.053 192.215  0.00  0.00    -0.299 NA
ATOM     19  C   LIG    1       41.876  21.362 193.285  0.00  0.00    +0.103 C 
ATOM     20  C   LIG    1       41.234  22.161 194.455  0.00  0.00    +0.120 C 
ATOM     21  N   LIG    1       40.637  23.402 193.898  0.00  0.00    -0.327 N 
ATOM     22  C   LIG    1       39.594  23.099 192.888  0.00  0.00    +0.120 C 
ATOM     23  C   LIG    1       40.273  22.332 191.721  0.00  0.00    +0.103 C 
BRANCH  21  24
ATOM     24  C   LIG    1       40.354  24.380 194.877  0.00  0.00    +0.030 A 
ATOM     25  C   LIG    1       39.550  25.496 194.605  0.00  0.00    +0.023 A 
ATOM     26  C   LIG    1       39.295  26.426 195.607  0.00  0.00    +0.002 A 
ATOM     27  C   LIG    1       39.836  26.254 196.879  0.00  0.00    +0.000 A 
ATOM     28  C   LIG    1       40.639  25.148 197.149  0.00  0.00    +0.002 A 
ATOM     29  C   LIG    1       40.901  24.215 196.152  0.00  0.00    +0.023 A 
ENDBRANCH  21  24
ENDBRANCH  17  18
ENDBRANCH  16  17
ENDBRANCH   5  16
TORSDOF 6
