REMARK VINA RESULT:      -6.6     23.856     27.696
REMARK  Name = ZINC000000608130
REMARK                            x       y       z     vdW  Elec       q    Type
REMARK                         _______ _______ _______ _____ _____    ______ ____
ROOT
ATOM      1  C   LIG    1       24.222  47.826 210.408  0.00  0.00    +0.264 C 
ATOM      2  C   LIG    1       24.010  46.903 211.639  0.00  0.00    +0.145 C 
ATOM      3  C   LIG    1       25.252  46.617 212.501  0.00  0.00    +0.059 C 
ATOM      4  C   LIG    1       23.481  45.547 211.148  0.00  0.00    +0.059 C 
ATOM      5  O   LIG    1       22.992  47.471 212.489  0.00  0.00    -0.482 OA
ATOM      6  C   LIG    1       22.850  48.819 212.672  0.00  0.00    +0.132 A 
ATOM      7  C   LIG    1       21.951  49.237 213.657  0.00  0.00    +0.047 A 
ATOM      8  C   LIG    1       21.766  50.592 213.894  0.00  0.00    +0.015 A 
ATOM      9  C   LIG    1       22.480  51.541 213.148  0.00  0.00    +0.018 A 
ATOM     10  C   LIG    1       23.376  51.090 212.161  0.00  0.00    +0.149 A 
ATOM     11  O   LIG    1       24.093  52.019 211.427  0.00  0.00    -0.422 OA
ATOM     12  C   LIG    1       23.977  53.360 211.620  0.00  0.00    +0.337 A 
ATOM     13  O   LIG    1       24.668  54.090 210.927  0.00  0.00    -0.245 OA
ATOM     14  C   LIG    1       23.055  53.829 212.621  0.00  0.00    +0.092 A 
ATOM     15  C   LIG    1       22.328  52.956 213.363  0.00  0.00    +0.018 A 
ATOM     16  C   LIG    1       23.570  49.732 211.900  0.00  0.00    +0.081 A 
ATOM     17  C   LIG    1       24.549  49.283 210.828  0.00  0.00    +0.258 C 
ENDROOT
BRANCH   1  18
ATOM     18  O   LIG    1       25.312  47.292 209.572  0.00  0.00    -0.453 OA
BRANCH  18  19
ATOM     19  C   LIG    1       25.161  47.204 208.239  0.00  0.00    +0.310 C 
ATOM     20  O   LIG    1       25.174  48.224 207.551  0.00  0.00    -0.251 OA
BRANCH  19  21
ATOM     21  C   LIG    1       24.879  45.828 207.614  0.00  0.00    +0.094 C 
ATOM     22  C   LIG    1       23.363  45.562 207.499  0.00  0.00    +0.019 C 
BRANCH  21  24
ATOM     23  C   LIG    1       24.858  43.365 208.401  0.00  0.00    +0.004 C 
ATOM     24  C   LIG    1       25.603  44.708 208.389  0.00  0.00    +0.011 C 
ENDBRANCH  21  24
ENDBRANCH  19  21
ENDBRANCH  18  19
ENDBRANCH   1  18
BRANCH  17  25
ATOM     25  O   LIG    1       25.875  49.359 211.428  0.00  0.00    -0.453 OA
BRANCH  25  26
ATOM     26  C   LIG    1       26.854  50.067 210.867  0.00  0.00    +0.305 C 
ATOM     27  O   LIG    1       26.850  50.329 209.669  0.00  0.00    -0.251 OA
ATOM     28  C   LIG    1       27.993  50.519 211.758  0.00  0.00    +0.136 C 
ENDBRANCH  25  26
ENDBRANCH  17  25
TORSDOF 6
