REMARK VINA RESULT:      -6.8     29.432     30.650
REMARK  Name = ZINC000000608130
REMARK                            x       y       z     vdW  Elec       q    Type
REMARK                         _______ _______ _______ _____ _____    ______ ____
ROOT
ATOM      1  C   LIG    1       28.576  17.083 197.136  0.00  0.00    +0.264 C 
ATOM      2  C   LIG    1       28.379  17.283 198.663  0.00  0.00    +0.145 C 
ATOM      3  C   LIG    1       28.676  16.064 199.556  0.00  0.00    +0.059 C 
ATOM      4  C   LIG    1       26.918  17.683 198.920  0.00  0.00    +0.059 C 
ATOM      5  O   LIG    1       29.202  18.380 199.110  0.00  0.00    -0.482 OA
ATOM      6  C   LIG    1       30.441  18.633 198.590  0.00  0.00    +0.132 A 
ATOM      7  C   LIG    1       31.213  19.607 199.228  0.00  0.00    +0.047 A 
ATOM      8  C   LIG    1       32.482  19.907 198.751  0.00  0.00    +0.015 A 
ATOM      9  C   LIG    1       32.990  19.233 197.631  0.00  0.00    +0.018 A 
ATOM     10  C   LIG    1       32.188  18.258 197.008  0.00  0.00    +0.149 A 
ATOM     11  O   LIG    1       32.685  17.581 195.907  0.00  0.00    -0.422 OA
ATOM     12  C   LIG    1       33.925  17.808 195.399  0.00  0.00    +0.337 A 
ATOM     13  O   LIG    1       34.269  17.143 194.436  0.00  0.00    -0.245 OA
ATOM     14  C   LIG    1       34.748  18.809 196.026  0.00  0.00    +0.092 A 
ATOM     15  C   LIG    1       34.302  19.502 197.105  0.00  0.00    +0.018 A 
ATOM     16  C   LIG    1       30.905  17.950 197.465  0.00  0.00    +0.081 A 
ATOM     17  C   LIG    1       30.071  16.888 196.767  0.00  0.00    +0.258 C 
ENDROOT
BRANCH   1  18
ATOM     18  O   LIG    1       27.796  15.916 196.685  0.00  0.00    -0.453 OA
BRANCH  18  19
ATOM     19  C   LIG    1       27.088  15.978 195.545  0.00  0.00    +0.310 C 
ATOM     20  O   LIG    1       27.453  16.719 194.633  0.00  0.00    -0.251 OA
BRANCH  19  21
ATOM     21  C   LIG    1       25.775  15.183 195.443  0.00  0.00    +0.094 C 
ATOM     22  C   LIG    1       25.094  15.394 194.075  0.00  0.00    +0.019 C 
BRANCH  21  24
ATOM     23  C   LIG    1       23.348  15.611 196.225  0.00  0.00    +0.004 C 
ATOM     24  C   LIG    1       24.831  15.518 196.615  0.00  0.00    +0.011 C 
ENDBRANCH  21  24
ENDBRANCH  19  21
ENDBRANCH  18  19
ENDBRANCH   1  18
BRANCH  17  25
ATOM     25  O   LIG    1       30.556  15.603 197.251  0.00  0.00    -0.453 OA
BRANCH  25  26
ATOM     26  C   LIG    1       31.094  14.706 196.426  0.00  0.00    +0.305 C 
ATOM     27  O   LIG    1       31.864  13.842 196.832  0.00  0.00    -0.251 OA
ATOM     28  C   LIG    1       30.742  14.804 194.957  0.00  0.00    +0.136 C 
ENDBRANCH  25  26
ENDBRANCH  17  25
TORSDOF 6
