REMARK VINA RESULT:      -8.7      1.541      6.807
REMARK  Name = ZINC000006086009
REMARK                            x       y       z     vdW  Elec       q    Type
REMARK                         _______ _______ _______ _____ _____    ______ ____
ROOT
ATOM      1  N   LIG    1       23.761  44.677 184.669  0.00  0.00    -0.286 NA
ATOM      2  C   LIG    1       24.484  44.901 183.391  0.00  0.00    +0.106 C 
ENDROOT
BRANCH   1   3
ATOM      3  C   LIG    1       23.788  43.205 185.056  0.00  0.00    +0.140 C 
ATOM      4  C   LIG    1       25.247  42.739 184.870  0.00  0.00    +0.034 C 
BRANCH   3   7
ATOM      5  N   LIG    1       23.258  44.055 187.316  0.00  0.00    -0.281 N 
ATOM      6  H   LIG    1       23.489  44.953 186.873  0.00  0.00    +0.155 HD
ATOM      7  C   LIG    1       23.373  42.939 186.525  0.00  0.00    +0.234 C 
ATOM      8  O   LIG    1       23.226  41.829 187.003  0.00  0.00    -0.274 OA
BRANCH   5  10
ATOM      9  C   LIG    1       22.065  44.915 189.213  0.00  0.00    +0.141 A 
ATOM     10  C   LIG    1       23.112  44.123 188.724  0.00  0.00    +0.076 A 
ATOM     11  C   LIG    1       23.949  43.438 189.605  0.00  0.00    +0.027 A 
ATOM     12  C   LIG    1       23.743  43.560 190.978  0.00  0.00    +0.002 A 
ATOM     13  C   LIG    1       22.707  44.354 191.468  0.00  0.00    +0.004 A 
ATOM     14  C   LIG    1       21.862  45.033 190.589  0.00  0.00    +0.047 A 
BRANCH   9  16
ATOM     15  C   LIG    1       20.417  46.716 188.604  0.00  0.00    +0.277 C 
ATOM     16  O   LIG    1       21.250  45.574 188.291  0.00  0.00    -0.493 OA
ENDBRANCH   9  16
ENDBRANCH   5  10
ENDBRANCH   3   7
ENDBRANCH   1   3
BRANCH   1  17
ATOM     17  C   LIG    1       22.352  45.271 184.582  0.00  0.00    +0.181 C 
BRANCH  17  18
ATOM     18  C   LIG    1       22.370  46.733 185.015  0.00  0.00    +0.231 C 
ATOM     19  N   LIG    1       21.723  47.592 184.165  0.00  0.00    -0.284 N 
ATOM     20  H   LIG    1       21.258  47.095 183.390  0.00  0.00    +0.155 HD
ATOM     21  O   LIG    1       22.936  47.116 186.019  0.00  0.00    -0.274 OA
BRANCH  19  22
ATOM     22  C   LIG    1       21.613  49.003 184.184  0.00  0.00    +0.041 A 
ATOM     23  C   LIG    1       20.427  49.563 184.758  0.00  0.00    +0.003 A 
ATOM     24  C   LIG    1       19.348  48.776 185.254  0.00  0.00    +0.010 A 
ATOM     25  C   LIG    1       18.236  49.369 185.806  0.00  0.00    +0.001 A 
ATOM     26  C   LIG    1       18.146  50.772 185.886  0.00  0.00    +0.001 A 
ATOM     27  C   LIG    1       19.164  51.559 185.406  0.00  0.00    +0.008 A 
ATOM     28  C   LIG    1       20.321  50.976 184.828  0.00  0.00    -0.016 A 
ATOM     29  C   LIG    1       21.369  51.784 184.316  0.00  0.00    +0.008 A 
ATOM     30  C   LIG    1       22.491  51.214 183.761  0.00  0.00    +0.002 A 
ATOM     31  C   LIG    1       22.621  49.815 183.696  0.00  0.00    +0.024 A 
ENDBRANCH  19  22
ENDBRANCH  17  18
ENDBRANCH   1  17
TORSDOF 7
