REMARK VINA RESULT:      -8.4     24.170     26.956
REMARK  Name = ZINC000000603759
REMARK                            x       y       z     vdW  Elec       q    Type
REMARK                         _______ _______ _______ _____ _____    ______ ____
ROOT
ATOM      1  C   LIG    1       21.748  41.393 210.687  0.00  0.00    +0.139 A 
ATOM      2  C   LIG    1       22.899  40.845 211.316  0.00  0.00    +0.050 A 
ATOM      3  C   LIG    1       23.340  39.559 211.675  0.00  0.00    +0.015 A 
ATOM      4  C   LIG    1       24.569  39.457 212.297  0.00  0.00    +0.020 A 
ATOM      5  C   LIG    1       25.339  40.616 212.556  0.00  0.00    +0.113 A 
ATOM      6  N   LIG    1       24.936  41.826 212.223  0.00  0.00    -0.236 NA
ATOM      7  C   LIG    1       23.729  41.904 211.606  0.00  0.00    +0.159 A 
ATOM      8  N   LIG    1       23.083  43.018 211.152  0.00  0.00    -0.241 N 
ATOM      9  N   LIG    1       21.876  42.714 210.598  0.00  0.00    -0.165 NA
ENDROOT
BRANCH   1  14
ATOM     10  C   LIG    1       19.144  40.075 208.504  0.00  0.00    +0.128 A 
ATOM     11  C   LIG    1       18.419  39.208 209.331  0.00  0.00    +0.040 A 
ATOM     12  C   LIG    1       18.865  39.114 210.640  0.00  0.00    +0.125 A 
ATOM     13  N   LIG    1       19.914  39.808 211.054  0.00  0.00    -0.234 NA
ATOM     14  C   LIG    1       20.582  40.631 210.202  0.00  0.00    +0.183 A 
ATOM     15  N   LIG    1       20.184  40.756 208.923  0.00  0.00    -0.211 NA
BRANCH  11  16
ATOM     16  C   LIG    1       17.272  38.444 208.862  0.00  0.00    -0.010 A 
ATOM     17  C   LIG    1       15.987  38.989 208.843  0.00  0.00    +0.028 A 
ATOM     18  C   LIG    1       14.915  38.233 208.386  0.00  0.00    +0.111 A 
ATOM     19  N   LIG    1       15.074  36.982 207.957  0.00  0.00    -0.263 NA
ATOM     20  C   LIG    1       16.288  36.433 207.961  0.00  0.00    +0.111 A 
ATOM     21  C   LIG    1       17.403  37.132 208.404  0.00  0.00    +0.028 A 
ENDBRANCH  11  16
BRANCH  10  22
ATOM     22  N   LIG    1       18.834  40.306 207.205  0.00  0.00    -0.343 N 
ATOM     23  H   LIG    1       17.941  40.775 207.013  0.00  0.00    +0.144 HD
ATOM     24  H   LIG    1       19.645  40.571 206.629  0.00  0.00    +0.144 HD
ENDBRANCH  10  22
ENDBRANCH   1  14
BRANCH   8  25
ATOM     25  C   LIG    1       23.603  44.380 211.228  0.00  0.00    +0.183 C 
BRANCH  25  26
ATOM     26  C   LIG    1       23.977  44.802 209.813  0.00  0.00    +0.009 A 
ATOM     27  C   LIG    1       25.214  44.471 209.262  0.00  0.00    +0.128 A 
ATOM     28  F   LIG    1       26.114  43.769 209.995  0.00  0.00    -0.205 F 
ATOM     29  C   LIG    1       25.584  44.843 207.976  0.00  0.00    +0.039 A 
ATOM     30  C   LIG    1       24.689  45.580 207.206  0.00  0.00    +0.003 A 
ATOM     31  C   LIG    1       23.447  45.931 207.734  0.00  0.00    +0.000 A 
ATOM     32  C   LIG    1       23.093  45.546 209.027  0.00  0.00    +0.008 A 
ENDBRANCH  25  26
ENDBRANCH   8  25
TORSDOF 5
