REMARK VINA RESULT:      -7.2      3.256      4.798
REMARK  Name = ZINC000078751741
REMARK                            x       y       z     vdW  Elec       q    Type
REMARK                         _______ _______ _______ _____ _____    ______ ____
ROOT
ATOM      1  S   LIG    1       23.001  44.578 184.336  0.00  0.00    +0.073 S 
ATOM      2  O   LIG    1       21.801  44.729 183.598  0.00  0.00    -0.150 OA
ATOM      3  O   LIG    1       23.144  45.348 185.517  0.00  0.00    -0.150 OA
ENDROOT
BRANCH   1   6
ATOM      4  C   LIG    1       23.880  47.429 182.800  0.00  0.00    +0.053 C 
ATOM      5  C   LIG    1       24.664  46.141 182.667  0.00  0.00    +0.014 A 
ATOM      6  C   LIG    1       24.388  44.921 183.244  0.00  0.00    +0.119 A 
ATOM      7  C   LIG    1       25.334  43.944 182.884  0.00  0.00    +0.051 A 
ATOM      8  C   LIG    1       26.332  44.411 182.059  0.00  0.00    +0.098 A 
ATOM      9  S   LIG    1       26.090  46.088 181.697  0.00  0.00    -0.085 S 
BRANCH   8  10
ATOM     10  C   LIG    1       27.460  43.667 181.536  0.00  0.00    +0.344 C 
ATOM     11  O   LIG    1       27.900  42.642 182.014  0.00  0.00    -0.245 OA
BRANCH  10  12
ATOM     12  O   LIG    1       28.073  44.127 180.452  0.00  0.00    -0.477 OA
ATOM     13  H   LIG    1       28.543  44.932 180.726  0.00  0.00    +0.295 HD
ENDBRANCH  10  12
ENDBRANCH   8  10
ENDBRANCH   1   6
BRANCH   1  14
ATOM     14  N   LIG    1       23.162  42.983 184.747  0.00  0.00    -0.213 N 
ATOM     15  H   LIG    1       23.786  42.686 183.986  0.00  0.00    +0.174 HD
BRANCH  14  16
ATOM     16  C   LIG    1       23.789  42.786 185.984  0.00  0.00    +0.084 A 
ATOM     17  C   LIG    1       24.977  42.056 186.077  0.00  0.00    +0.146 A 
ATOM     18  F   LIG    1       25.509  41.506 184.964  0.00  0.00    -0.204 F 
ATOM     19  C   LIG    1       25.625  41.880 187.289  0.00  0.00    +0.041 A 
ATOM     20  C   LIG    1       25.069  42.437 188.442  0.00  0.00    +0.015 A 
ATOM     21  C   LIG    1       23.863  43.160 188.382  0.00  0.00    +0.057 A 
ATOM     22  C   LIG    1       23.218  43.310 187.145  0.00  0.00    +0.039 A 
BRANCH  21  23
ATOM     23  C   LIG    1       23.231  43.763 189.646  0.00  0.00    +0.417 C 
ATOM     24  F   LIG    1       23.957  43.459 190.735  0.00  0.00    -0.166 F 
ATOM     25  F   LIG    1       21.992  43.274 189.792  0.00  0.00    -0.166 F 
ATOM     26  F   LIG    1       23.163  45.104 189.527  0.00  0.00    -0.166 F 
ENDBRANCH  21  23
ENDBRANCH  14  16
ENDBRANCH   1  14
TORSDOF 6
