REMARK VINA RESULT:      -9.6      0.000      0.000
REMARK  Name = ZINC000006083105
REMARK                            x       y       z     vdW  Elec       q    Type
REMARK                         _______ _______ _______ _____ _____    ______ ____
ROOT
ATOM      1  C   LIG    1       26.077  42.516 185.784  0.00  0.00    +0.083 C 
ENDROOT
BRANCH   1   2
ATOM      2  C   LIG    1       25.436  42.424 184.413  0.00  0.00    +0.111 A 
ATOM      3  N   LIG    1       26.034  41.555 183.524  0.00  0.00    -0.310 N 
ATOM      4  H   LIG    1       26.899  41.061 183.783  0.00  0.00    +0.170 HD
ATOM      5  C   LIG    1       25.593  41.383 182.248  0.00  0.00    +0.260 A 
ATOM      6  O   LIG    1       26.243  40.589 181.568  0.00  0.00    -0.267 OA
ATOM      7  C   LIG    1       24.446  42.148 181.854  0.00  0.00    +0.075 A 
ATOM      8  C   LIG    1       23.751  42.192 180.619  0.00  0.00    -0.023 A 
ATOM      9  C   LIG    1       24.129  41.385 179.389  0.00  0.00    +0.037 C 
ATOM     10  C   LIG    1       22.933  41.404 178.418  0.00  0.00    +0.005 C 
ATOM     11  C   LIG    1       22.390  42.831 178.217  0.00  0.00    +0.005 C 
ATOM     12  C   LIG    1       21.750  43.372 179.509  0.00  0.00    +0.043 C 
ATOM     13  C   LIG    1       22.711  43.078 180.640  0.00  0.00    -0.004 A 
ATOM     14  S   LIG    1       22.549  43.862 182.178  0.00  0.00    -0.073 S 
ATOM     15  C   LIG    1       23.908  42.995 182.792  0.00  0.00    +0.116 A 
ATOM     16  N   LIG    1       24.419  43.129 184.080  0.00  0.00    -0.227 NA
ENDBRANCH   1   2
BRANCH   1  17
ATOM     17  C   LIG    1       25.370  41.489 186.708  0.00  0.00    +0.104 C 
BRANCH  17  20
ATOM     18  N   LIG    1       24.667  42.845 188.634  0.00  0.00    -0.285 N 
ATOM     19  H   LIG    1       25.672  42.850 188.841  0.00  0.00    +0.155 HD
ATOM     20  C   LIG    1       24.287  42.215 187.481  0.00  0.00    +0.218 C 
ATOM     21  O   LIG    1       23.129  42.218 187.116  0.00  0.00    -0.275 OA
BRANCH  18  25
ATOM     22  C   LIG    1       22.170  44.698 191.435  0.00  0.00    +0.121 A 
ATOM     23  C   LIG    1       23.080  43.719 191.843  0.00  0.00    +0.047 A 
ATOM     24  C   LIG    1       23.908  43.118 190.899  0.00  0.00    +0.027 A 
ATOM     25  C   LIG    1       23.822  43.505 189.560  0.00  0.00    +0.034 A 
ATOM     26  C   LIG    1       22.906  44.480 189.152  0.00  0.00    +0.027 A 
ATOM     27  C   LIG    1       22.080  45.078 190.097  0.00  0.00    +0.047 A 
BRANCH  22  28
ATOM     28  O   LIG    1       21.327  45.329 192.325  0.00  0.00    -0.492 OA
BRANCH  28  30
ATOM     29  C   LIG    1       20.399  47.487 192.194  0.00  0.00    +0.048 C 
ATOM     30  C   LIG    1       20.105  46.006 191.966  0.00  0.00    +0.225 C 
ENDBRANCH  28  30
ENDBRANCH  22  28
ENDBRANCH  18  25
ENDBRANCH  17  20
ENDBRANCH   1  17
TORSDOF 6
