REMARK VINA RESULT:      -8.7      2.141     10.065
REMARK  Name = ZINC000186872603
REMARK                            x       y       z     vdW  Elec       q    Type
REMARK                         _______ _______ _______ _____ _____    ______ ____
ROOT
ATOM      1  N   LIG    1       23.248  43.436 187.161  0.00  0.00    -0.297 N 
ATOM      2  C   LIG    1       23.313  44.126 185.846  0.00  0.00    +0.123 C 
ATOM      3  C   LIG    1       23.520  43.056 184.745  0.00  0.00    +0.103 C 
ATOM      4  N   LIG    1       24.770  42.280 184.994  0.00  0.00    -0.299 NA
ATOM      5  C   LIG    1       24.665  41.589 186.318  0.00  0.00    +0.103 C 
ATOM      6  C   LIG    1       24.437  42.599 187.475  0.00  0.00    +0.123 C 
ENDROOT
BRANCH   1  10
ATOM      7  C   LIG    1       20.313  46.907 188.606  0.00  0.00    +0.066 C 
ATOM      8  C   LIG    1       21.179  45.713 188.922  0.00  0.00    +0.044 A 
ATOM      9  N   LIG    1       21.818  45.121 187.935  0.00  0.00    -0.220 NA
ATOM     10  C   LIG    1       22.582  44.057 188.209  0.00  0.00    +0.218 A 
ATOM     11  N   LIG    1       22.740  43.558 189.441  0.00  0.00    -0.219 NA
ATOM     12  C   LIG    1       22.108  44.130 190.453  0.00  0.00    +0.049 A 
ATOM     13  C   LIG    1       21.302  45.233 190.217  0.00  0.00    +0.046 A 
BRANCH  12  14
ATOM     14  C   LIG    1       22.274  43.572 191.864  0.00  0.00    +0.032 C 
ATOM     15  C   LIG    1       22.000  44.688 192.884  0.00  0.00    +0.014 C 
ATOM     16  C   LIG    1       23.700  43.022 192.027  0.00  0.00    +0.014 C 
ENDBRANCH  12  14
ENDBRANCH   1  10
BRANCH   4  17
ATOM     17  C   LIG    1       25.989  43.096 184.818  0.00  0.00    +0.085 C 
BRANCH  17  18
ATOM     18  C   LIG    1       25.788  43.821 183.476  0.00  0.00    +0.025 C 
BRANCH  18  19
ATOM     19  C   LIG    1       26.693  43.158 182.420  0.00  0.00    +0.097 C 
BRANCH  19  20
ATOM     20  C   LIG    1       27.562  44.226 181.789  0.00  0.00    +0.197 A 
ATOM     21  O   LIG    1       28.150  45.155 182.589  0.00  0.00    -0.440 OA
ATOM     22  C   LIG    1       28.842  45.935 181.754  0.00  0.00    +0.155 A 
ATOM     23  C   LIG    1       29.636  47.046 182.033  0.00  0.00    +0.048 A 
ATOM     24  C   LIG    1       30.254  47.682 180.961  0.00  0.00    +0.004 A 
ATOM     25  C   LIG    1       30.068  47.205 179.647  0.00  0.00    +0.002 A 
ATOM     26  C   LIG    1       29.268  46.091 179.401  0.00  0.00    +0.031 A 
ATOM     27  C   LIG    1       28.651  45.455 180.481  0.00  0.00    +0.110 A 
ATOM     28  N   LIG    1       27.826  44.356 180.542  0.00  0.00    -0.213 NA
ENDBRANCH  19  20
ENDBRANCH  18  19
ENDBRANCH  17  18
ENDBRANCH   4  17
TORSDOF 6
