REMARK VINA RESULT:      -7.8     33.835     36.162
REMARK  Name = ZINC000000607845
REMARK                            x       y       z     vdW  Elec       q    Type
REMARK                         _______ _______ _______ _____ _____    ______ ____
ROOT
ATOM      1  C   LIG    1       24.899  41.062 212.015  0.00  0.00    -0.021 A 
ATOM      2  C   LIG    1       25.715  42.117 211.539  0.00  0.00    +0.003 A 
ATOM      3  C   LIG    1       25.456  43.294 210.816  0.00  0.00    +0.014 A 
ATOM      4  C   LIG    1       26.499  44.159 210.516  0.00  0.00    -0.045 A 
ATOM      5  C   LIG    1       27.821  43.851 210.924  0.00  0.00    +0.006 A 
ATOM      6  C   LIG    1       28.093  42.690 211.626  0.00  0.00    +0.026 A 
ATOM      7  C   LIG    1       27.020  41.839 211.922  0.00  0.00    +0.047 A 
ATOM      8  N   LIG    1       26.999  40.638 212.603  0.00  0.00    -0.360 N 
ATOM      9  H   LIG    1       27.826  40.169 213.006  0.00  0.00    +0.165 HD
ATOM     10  C   LIG    1       25.704  40.173 212.657  0.00  0.00    +0.087 A 
ENDROOT
BRANCH   1  11
ATOM     11  C   LIG    1       23.396  40.945 211.851  0.00  0.00    +0.056 C 
BRANCH  11  14
ATOM     12  C   LIG    1       21.621  38.712 212.109  0.00  0.00    +0.105 C 
ATOM     13  N   LIG    1       21.987  39.130 210.743  0.00  0.00    -0.302 NA
ATOM     14  C   LIG    1       23.129  40.077 210.592  0.00  0.00    +0.061 C 
ATOM     15  C   LIG    1       22.700  40.994 209.425  0.00  0.00    +0.020 C 
ATOM     16  C   LIG    1       21.555  40.221 208.775  0.00  0.00    +0.017 C 
ATOM     17  C   LIG    1       20.846  39.646 209.997  0.00  0.00    +0.084 C 
ENDBRANCH  11  14
ENDBRANCH   1  11
BRANCH   4  18
ATOM     18  C   LIG    1       26.220  45.449 209.773  0.00  0.00    +0.058 C 
BRANCH  18  19
ATOM     19  C   LIG    1       25.531  45.035 208.462  0.00  0.00    +0.176 C 
BRANCH  19  20
ATOM     20  S   LIG    1       24.064  45.946 208.044  0.00  0.00    -0.003 S 
ATOM     21  O   LIG    1       23.455  45.325 206.917  0.00  0.00    -0.169 OA
ATOM     22  O   LIG    1       24.412  47.320 207.916  0.00  0.00    -0.169 OA
BRANCH  20  23
ATOM     23  C   LIG    1       23.003  45.732 209.484  0.00  0.00    +0.088 A 
ATOM     24  C   LIG    1       22.879  46.750 210.433  0.00  0.00    +0.027 A 
ATOM     25  C   LIG    1       22.060  46.586 211.546  0.00  0.00    +0.002 A 
ATOM     26  C   LIG    1       21.362  45.396 211.727  0.00  0.00    +0.000 A 
ATOM     27  C   LIG    1       21.488  44.371 210.797  0.00  0.00    +0.002 A 
ATOM     28  C   LIG    1       22.307  44.536 209.684  0.00  0.00    +0.027 A 
ENDBRANCH  20  23
ENDBRANCH  19  20
ENDBRANCH  18  19
ENDBRANCH   4  18
TORSDOF 6
