MODEL 1
REMARK VINA RESULT:      -9.2      0.000      0.000
REMARK  Name = ZINC000006084415
REMARK                            x       y       z     vdW  Elec       q    Type
REMARK                         _______ _______ _______ _____ _____    ______ ____
ROOT
ATOM      1  O   LIG    1       23.772  42.426 186.087  0.00  0.00    -0.451 OA
ENDROOT
BRANCH   1   2
ATOM      2  C   LIG    1       23.561  43.431 185.200  0.00  0.00    +0.356 C 
ATOM      3  O   LIG    1       22.756  44.298 185.507  0.00  0.00    -0.243 OA
BRANCH   2   7
ATOM      4  C   LIG    1       25.809  43.316 182.265  0.00  0.00    +0.041 A 
ATOM      5  C   LIG    1       25.663  43.348 183.671  0.00  0.00    -0.008 A 
ATOM      6  C   LIG    1       26.792  43.355 184.685  0.00  0.00    +0.047 C 
ATOM      7  C   LIG    1       24.321  43.376 183.966  0.00  0.00    +0.128 A 
ATOM      8  N   LIG    1       23.657  43.360 182.767  0.00  0.00    -0.352 N 
ATOM      9  H   LIG    1       22.623  43.386 182.678  0.00  0.00    +0.166 HD
ATOM     10  C   LIG    1       24.525  43.324 181.734  0.00  0.00    +0.024 A 
ATOM     11  C   LIG    1       23.979  43.307 180.319  0.00  0.00    +0.064 C 
BRANCH   4  13
ATOM     12  C   LIG    1       27.358  44.191 180.358  0.00  0.00    +0.091 C 
ATOM     13  C   LIG    1       27.079  43.287 181.533  0.00  0.00    +0.162 C 
ATOM     14  O   LIG    1       27.981  42.532 181.833  0.00  0.00    -0.292 OA
ENDBRANCH   4  13
ENDBRANCH   2   7
ENDBRANCH   1   2
BRANCH   1  15
ATOM     15  C   LIG    1       23.211  42.497 187.448  0.00  0.00    +0.328 C 
BRANCH  15  16
ATOM     16  C   LIG    1       24.360  42.814 188.406  0.00  0.00    +0.256 C 
ATOM     17  N   LIG    1       24.202  43.461 189.591  0.00  0.00    -0.266 N 
ATOM     18  H   LIG    1       25.050  43.455 190.171  0.00  0.00    +0.156 HD
ATOM     19  O   LIG    1       25.511  42.517 188.156  0.00  0.00    -0.272 OA
BRANCH  17  20
ATOM     20  C   LIG    1       23.060  44.086 190.118  0.00  0.00    +0.144 A 
ATOM     21  C   LIG    1       22.673  43.820 191.448  0.00  0.00    +0.082 A 
ATOM     22 CL   LIG    1       23.570  42.719 192.444  0.00  0.00    -0.080 Cl
ATOM     23  C   LIG    1       21.555  44.458 191.961  0.00  0.00    +0.045 A 
ATOM     24  C   LIG    1       20.871  45.344 191.134  0.00  0.00    +0.063 A 
ATOM     25 CL   LIG    1       19.469  46.153 191.756  0.00  0.00    -0.082 Cl
ATOM     26  C   LIG    1       21.322  45.570 189.822  0.00  0.00    +0.059 A 
ATOM     27  C   LIG    1       20.609  46.530 188.894  0.00  0.00    +0.067 C 
ATOM     28  N   LIG    1       22.402  44.945 189.337  0.00  0.00    -0.234 NA
ENDBRANCH  17  20
ENDBRANCH  15  16
ENDBRANCH   1  15
TORSDOF 6
ENDMDL
MODEL 2
REMARK VINA RESULT:      -8.4      1.436      2.133
REMARK  Name = ZINC000006084415
REMARK                            x       y       z     vdW  Elec       q    Type
REMARK                         _______ _______ _______ _____ _____    ______ ____
ROOT
ATOM      1  O   LIG    1       23.201  44.175 186.021  0.00  0.00    -0.451 OA
ENDROOT
BRANCH   1   2
ATOM      2  C   LIG    1       22.900  44.213 184.698  0.00  0.00    +0.356 C 
ATOM      3  O   LIG    1       21.920  44.863 184.360  0.00  0.00    -0.243 OA
BRANCH   2   7
ATOM      4  C   LIG    1       24.848  42.301 182.203  0.00  0.00    +0.041 A 
ATOM      5  C   LIG    1       23.631  42.925 182.560  0.00  0.00    -0.008 A 
ATOM      6  C   LIG    1       22.372  42.978 181.714  0.00  0.00    +0.047 C 
ATOM      7  C   LIG    1       23.779  43.476 183.811  0.00  0.00    +0.128 A 
ATOM      8  N   LIG    1       25.060  43.198 184.212  0.00  0.00    -0.352 N 
ATOM      9  H   LIG    1       25.454  43.483 185.129  0.00  0.00    +0.166 HD
ATOM     10  C   LIG    1       25.720  42.496 183.267  0.00  0.00    +0.024 A 
ATOM     11  C   LIG    1       27.156  42.086 183.530  0.00  0.00    +0.064 C 
BRANCH   4  13
ATOM     12  C   LIG    1       24.982  40.090 180.826  0.00  0.00    +0.091 C 
ATOM     13  C   LIG    1       25.112  41.588 180.949  0.00  0.00    +0.162 C 
ATOM     14  O   LIG    1       25.450  42.164 179.936  0.00  0.00    -0.292 OA
ENDBRANCH   4  13
ENDBRANCH   2   7
ENDBRANCH   1   2
BRANCH   1  15
ATOM     15  C   LIG    1       23.010  42.939 186.798  0.00  0.00    +0.328 C 
BRANCH  15  16
ATOM     16  C   LIG    1       24.199  42.802 187.750  0.00  0.00    +0.256 C 
ATOM     17  N   LIG    1       24.188  43.226 189.042  0.00  0.00    -0.266 N 
ATOM     18  H   LIG    1       25.012  42.921 189.575  0.00  0.00    +0.156 HD
ATOM     19  O   LIG    1       25.255  42.314 187.400  0.00  0.00    -0.272 OA
BRANCH  17  20
ATOM     20  C   LIG    1       23.214  43.972 189.725  0.00  0.00    +0.144 A 
ATOM     21  C   LIG    1       23.111  43.862 191.128  0.00  0.00    +0.082 A 
ATOM     22 CL   LIG    1       24.154  42.807 192.028  0.00  0.00    -0.080 Cl
ATOM     23  C   LIG    1       22.159  44.619 191.791  0.00  0.00    +0.045 A 
ATOM     24  C   LIG    1       21.351  45.463 191.034  0.00  0.00    +0.063 A 
ATOM     25 CL   LIG    1       20.152  46.419 191.844  0.00  0.00    -0.082 Cl
ATOM     26  C   LIG    1       21.519  45.531 189.640  0.00  0.00    +0.059 A 
ATOM     27  C   LIG    1       20.666  46.441 188.783  0.00  0.00    +0.067 C 
ATOM     28  N   LIG    1       22.442  44.793 189.011  0.00  0.00    -0.234 NA
ENDBRANCH  17  20
ENDBRANCH  15  16
ENDBRANCH   1  15
TORSDOF 6
ENDMDL
MODEL 3
REMARK VINA RESULT:      -8.0      3.623      4.608
REMARK  Name = ZINC000006084415
REMARK                            x       y       z     vdW  Elec       q    Type
REMARK                         _______ _______ _______ _____ _____    ______ ____
ROOT
ATOM      1  O   LIG    1       22.552  44.647 185.424  0.00  0.00    -0.451 OA
ENDROOT
BRANCH   1   2
ATOM      2  C   LIG    1       23.251  45.273 184.445  0.00  0.00    +0.356 C 
ATOM      3  O   LIG    1       24.252  44.715 184.018  0.00  0.00    -0.243 OA
BRANCH   2   7
ATOM      4  C   LIG    1       21.789  48.351 183.006  0.00  0.00    +0.041 A 
ATOM      5  C   LIG    1       21.949  46.948 182.940  0.00  0.00    -0.008 A 
ATOM      6  C   LIG    1       21.359  46.030 181.884  0.00  0.00    +0.047 C 
ATOM      7  C   LIG    1       22.735  46.552 183.996  0.00  0.00    +0.128 A 
ATOM      8  N   LIG    1       23.050  47.688 184.696  0.00  0.00    -0.352 N 
ATOM      9  H   LIG    1       23.647  47.697 185.544  0.00  0.00    +0.166 HD
ATOM     10  C   LIG    1       22.496  48.777 184.123  0.00  0.00    +0.024 A 
ATOM     11  C   LIG    1       22.736  50.136 184.752  0.00  0.00    +0.064 C 
BRANCH   4  13
ATOM     12  C   LIG    1       21.687  49.975 180.968  0.00  0.00    +0.091 C 
ATOM     13  C   LIG    1       21.026  49.174 182.062  0.00  0.00    +0.162 C 
ATOM     14  O   LIG    1       19.816  49.256 182.106  0.00  0.00    -0.292 OA
ENDBRANCH   4  13
ENDBRANCH   2   7
ENDBRANCH   1   2
BRANCH   1  15
ATOM     15  C   LIG    1       22.944  44.794 186.837  0.00  0.00    +0.328 C 
BRANCH  15  16
ATOM     16  C   LIG    1       23.054  43.391 187.435  0.00  0.00    +0.256 C 
ATOM     17  N   LIG    1       22.534  43.038 188.641  0.00  0.00    -0.266 N 
ATOM     18  H   LIG    1       22.569  42.027 188.816  0.00  0.00    +0.156 HD
ATOM     19  O   LIG    1       23.640  42.490 186.869  0.00  0.00    -0.272 OA
BRANCH  17  20
ATOM     20  C   LIG    1       21.945  43.847 189.627  0.00  0.00    +0.144 A 
ATOM     21  C   LIG    1       22.546  43.940 190.899  0.00  0.00    +0.082 A 
ATOM     22 CL   LIG    1       23.992  43.060 191.280  0.00  0.00    -0.080 Cl
ATOM     23  C   LIG    1       21.966  44.757 191.856  0.00  0.00    +0.045 A 
ATOM     24  C   LIG    1       20.814  45.457 191.507  0.00  0.00    +0.063 A 
ATOM     25 CL   LIG    1       20.071  46.484 192.690  0.00  0.00    -0.082 Cl
ATOM     26  C   LIG    1       20.278  45.325 190.215  0.00  0.00    +0.059 A 
ATOM     27  C   LIG    1       19.031  46.074 189.795  0.00  0.00    +0.067 C 
ATOM     28  N   LIG    1       20.847  44.531 189.300  0.00  0.00    -0.234 NA
ENDBRANCH  17  20
ENDBRANCH  15  16
ENDBRANCH   1  15
TORSDOF 6
ENDMDL
MODEL 4
REMARK VINA RESULT:      -7.9      4.476      7.662
REMARK  Name = ZINC000006084415
REMARK                            x       y       z     vdW  Elec       q    Type
REMARK                         _______ _______ _______ _____ _____    ______ ____
ROOT
ATOM      1  O   LIG    1       22.025  46.008 184.316  0.00  0.00    -0.451 OA
ENDROOT
BRANCH   1   2
ATOM      2  C   LIG    1       21.917  46.758 185.442  0.00  0.00    +0.356 C 
ATOM      3  O   LIG    1       22.242  46.239 186.501  0.00  0.00    -0.243 OA
BRANCH   2   7
ATOM      4  C   LIG    1       20.321  50.065 184.998  0.00  0.00    +0.041 A 
ATOM      5  C   LIG    1       20.174  48.669 185.166  0.00  0.00    -0.008 A 
ATOM      6  C   LIG    1       18.862  47.908 185.216  0.00  0.00    +0.047 C 
ATOM      7  C   LIG    1       21.426  48.112 185.275  0.00  0.00    +0.128 A 
ATOM      8  N   LIG    1       22.323  49.145 185.177  0.00  0.00    -0.352 N 
ATOM      9  H   LIG    1       23.352  49.022 185.213  0.00  0.00    +0.166 HD
ATOM     10  C   LIG    1       21.686  50.323 185.011  0.00  0.00    +0.024 A 
ATOM     11  C   LIG    1       22.511  51.589 184.876  0.00  0.00    +0.064 C 
BRANCH   4  13
ATOM     12  C   LIG    1       18.258  51.347 185.947  0.00  0.00    +0.091 C 
ATOM     13  C   LIG    1       19.229  51.030 184.837  0.00  0.00    +0.162 C 
ATOM     14  O   LIG    1       19.044  51.630 183.799  0.00  0.00    -0.292 OA
ENDBRANCH   4  13
ENDBRANCH   2   7
ENDBRANCH   1   2
BRANCH   1  15
ATOM     15  C   LIG    1       23.332  45.817 183.665  0.00  0.00    +0.328 C 
BRANCH  15  16
ATOM     16  C   LIG    1       23.244  44.552 182.811  0.00  0.00    +0.256 C 
ATOM     17  N   LIG    1       23.477  43.299 183.286  0.00  0.00    -0.266 N 
ATOM     18  H   LIG    1       23.228  42.560 182.618  0.00  0.00    +0.156 HD
ATOM     19  O   LIG    1       22.974  44.588 181.628  0.00  0.00    -0.272 OA
BRANCH  17  20
ATOM     20  C   LIG    1       23.966  42.900 184.541  0.00  0.00    +0.144 A 
ATOM     21  C   LIG    1       25.240  42.302 184.632  0.00  0.00    +0.082 A 
ATOM     22 CL   LIG    1       26.211  42.030 183.221  0.00  0.00    -0.080 Cl
ATOM     23  C   LIG    1       25.719  41.930 185.878  0.00  0.00    +0.045 A 
ATOM     24  C   LIG    1       24.914  42.178 186.988  0.00  0.00    +0.063 A 
ATOM     25 CL   LIG    1       25.493  41.721 188.557  0.00  0.00    -0.082 Cl
ATOM     26  C   LIG    1       23.660  42.791 186.822  0.00  0.00    +0.059 A 
ATOM     27  C   LIG    1       22.759  43.082 188.004  0.00  0.00    +0.067 C 
ATOM     28  N   LIG    1       23.209  43.142 185.612  0.00  0.00    -0.234 NA
ENDBRANCH  17  20
ENDBRANCH  15  16
ENDBRANCH   1  15
TORSDOF 6
ENDMDL
MODEL 5
REMARK VINA RESULT:      -7.9      4.275      6.633
REMARK  Name = ZINC000006084415
REMARK                            x       y       z     vdW  Elec       q    Type
REMARK                         _______ _______ _______ _____ _____    ______ ____
ROOT
ATOM      1  O   LIG    1       21.831  45.737 185.020  0.00  0.00    -0.451 OA
ENDROOT
BRANCH   1   2
ATOM      2  C   LIG    1       21.620  46.737 185.912  0.00  0.00    +0.356 C 
ATOM      3  O   LIG    1       21.800  46.488 187.096  0.00  0.00    -0.243 OA
BRANCH   2   7
ATOM      4  C   LIG    1       20.233  49.828 184.427  0.00  0.00    +0.041 A 
ATOM      5  C   LIG    1       20.045  48.473 184.786  0.00  0.00    -0.008 A 
ATOM      6  C   LIG    1       18.783  47.658 184.566  0.00  0.00    +0.047 C 
ATOM      7  C   LIG    1       21.203  48.015 185.367  0.00  0.00    +0.128 A 
ATOM      8  N   LIG    1       22.083  49.065 185.366  0.00  0.00    -0.352 N 
ATOM      9  H   LIG    1       23.051  49.009 185.736  0.00  0.00    +0.166 HD
ATOM     10  C   LIG    1       21.526  50.162 184.809  0.00  0.00    +0.024 A 
ATOM     11  C   LIG    1       22.350  51.431 184.712  0.00  0.00    +0.064 C 
BRANCH   4  13
ATOM     12  C   LIG    1       19.310  51.032 182.306  0.00  0.00    +0.091 C 
ATOM     13  C   LIG    1       19.243  50.689 183.773  0.00  0.00    +0.162 C 
ATOM     14  O   LIG    1       18.309  51.175 184.377  0.00  0.00    -0.292 OA
ENDBRANCH   4  13
ENDBRANCH   2   7
ENDBRANCH   1   2
BRANCH   1  15
ATOM     15  C   LIG    1       23.191  45.229 184.770  0.00  0.00    +0.328 C 
BRANCH  15  16
ATOM     16  C   LIG    1       23.081  43.729 184.494  0.00  0.00    +0.256 C 
ATOM     17  N   LIG    1       23.087  42.777 185.465  0.00  0.00    -0.266 N 
ATOM     18  H   LIG    1       22.855  41.840 185.115  0.00  0.00    +0.156 HD
ATOM     19  O   LIG    1       23.001  43.282 183.367  0.00  0.00    -0.272 OA
BRANCH  17  20
ATOM     20  C   LIG    1       23.328  42.913 186.843  0.00  0.00    +0.144 A 
ATOM     21  C   LIG    1       24.588  42.557 187.366  0.00  0.00    +0.082 A 
ATOM     22 CL   LIG    1       25.845  41.935 186.345  0.00  0.00    -0.080 Cl
ATOM     23  C   LIG    1       24.818  42.714 188.723  0.00  0.00    +0.045 A 
ATOM     24  C   LIG    1       23.788  43.228 189.506  0.00  0.00    +0.063 A 
ATOM     25 CL   LIG    1       24.055  43.432 191.207  0.00  0.00    -0.082 Cl
ATOM     26  C   LIG    1       22.562  43.574 188.913  0.00  0.00    +0.059 A 
ATOM     27  C   LIG    1       21.420  44.142 189.729  0.00  0.00    +0.067 C 
ATOM     28  N   LIG    1       22.351  43.415 187.600  0.00  0.00    -0.234 NA
ENDBRANCH  17  20
ENDBRANCH  15  16
ENDBRANCH   1  15
TORSDOF 6
ENDMDL
MODEL 6
REMARK VINA RESULT:      -7.6      5.056      8.933
REMARK  Name = ZINC000006084415
REMARK                            x       y       z     vdW  Elec       q    Type
REMARK                         _______ _______ _______ _____ _____    ______ ____
ROOT
ATOM      1  O   LIG    1       22.363  48.631 183.503  0.00  0.00    -0.451 OA
ENDROOT
BRANCH   1   2
ATOM      2  C   LIG    1       22.303  49.497 184.546  0.00  0.00    +0.356 C 
ATOM      3  O   LIG    1       23.324  50.104 184.837  0.00  0.00    -0.243 OA
BRANCH   2   7
ATOM      4  C   LIG    1       19.008  50.152 186.095  0.00  0.00    +0.041 A 
ATOM      5  C   LIG    1       20.038  50.581 185.226  0.00  0.00    -0.008 A 
ATOM      6  C   LIG    1       20.061  51.879 184.440  0.00  0.00    +0.047 C 
ATOM      7  C   LIG    1       21.022  49.620 185.214  0.00  0.00    +0.128 A 
ATOM      8  N   LIG    1       20.604  48.623 186.057  0.00  0.00    -0.352 N 
ATOM      9  H   LIG    1       21.154  47.766 186.256  0.00  0.00    +0.166 HD
ATOM     10  C   LIG    1       19.402  48.918 186.596  0.00  0.00    +0.024 A 
ATOM     11  C   LIG    1       18.773  47.935 187.564  0.00  0.00    +0.064 C 
BRANCH   4  13
ATOM     12  C   LIG    1       17.457  51.401 187.779  0.00  0.00    +0.091 C 
ATOM     13  C   LIG    1       17.778  50.889 186.396  0.00  0.00    +0.162 C 
ATOM     14  O   LIG    1       16.944  51.132 185.548  0.00  0.00    -0.292 OA
ENDBRANCH   4  13
ENDBRANCH   2   7
ENDBRANCH   1   2
BRANCH   1  15
ATOM     15  C   LIG    1       22.816  47.244 183.705  0.00  0.00    +0.328 C 
BRANCH  15  16
ATOM     16  C   LIG    1       21.778  46.320 183.069  0.00  0.00    +0.256 C 
ATOM     17  N   LIG    1       21.807  44.965 183.169  0.00  0.00    -0.266 N 
ATOM     18  H   LIG    1       20.955  44.514 182.811  0.00  0.00    +0.156 HD
ATOM     19  O   LIG    1       20.853  46.745 182.405  0.00  0.00    -0.272 OA
BRANCH  17  20
ATOM     20  C   LIG    1       22.802  44.133 183.709  0.00  0.00    +0.144 A 
ATOM     21  C   LIG    1       23.887  43.733 182.902  0.00  0.00    +0.082 A 
ATOM     22 CL   LIG    1       24.010  44.233 181.245  0.00  0.00    -0.080 Cl
ATOM     23  C   LIG    1       24.872  42.930 183.453  0.00  0.00    +0.045 A 
ATOM     24  C   LIG    1       24.744  42.562 184.790  0.00  0.00    +0.063 A 
ATOM     25 CL   LIG    1       25.964  41.556 185.499  0.00  0.00    -0.082 Cl
ATOM     26  C   LIG    1       23.641  43.009 185.537  0.00  0.00    +0.059 A 
ATOM     27  C   LIG    1       23.469  42.637 186.995  0.00  0.00    +0.067 C 
ATOM     28  N   LIG    1       22.695  43.784 184.992  0.00  0.00    -0.234 NA
ENDBRANCH  17  20
ENDBRANCH  15  16
ENDBRANCH   1  15
TORSDOF 6
ENDMDL
MODEL 7
REMARK VINA RESULT:      -7.5      5.198      8.624
REMARK  Name = ZINC000006084415
REMARK                            x       y       z     vdW  Elec       q    Type
REMARK                         _______ _______ _______ _____ _____    ______ ____
ROOT
ATOM      1  O   LIG    1       23.334  45.941 184.593  0.00  0.00    -0.451 OA
ENDROOT
BRANCH   1   2
ATOM      2  C   LIG    1       22.457  46.496 185.466  0.00  0.00    +0.356 C 
ATOM      3  O   LIG    1       22.145  45.840 186.450  0.00  0.00    -0.243 OA
BRANCH   2   7
ATOM      4  C   LIG    1       20.898  49.728 184.567  0.00  0.00    +0.041 A 
ATOM      5  C   LIG    1       20.756  48.335 184.765  0.00  0.00    -0.008 A 
ATOM      6  C   LIG    1       19.480  47.533 184.586  0.00  0.00    +0.047 C 
ATOM      7  C   LIG    1       21.975  47.826 185.145  0.00  0.00    +0.128 A 
ATOM      8  N   LIG    1       22.846  48.884 185.181  0.00  0.00    -0.352 N 
ATOM      9  H   LIG    1       23.851  48.798 185.427  0.00  0.00    +0.166 HD
ATOM     10  C   LIG    1       22.225  50.033 184.840  0.00  0.00    +0.024 A 
ATOM     11  C   LIG    1       23.029  51.319 184.816  0.00  0.00    +0.064 C 
BRANCH   4  13
ATOM     12  C   LIG    1       18.949  51.363 185.138  0.00  0.00    +0.091 C 
ATOM     13  C   LIG    1       19.836  50.648 184.150  0.00  0.00    +0.162 C 
ATOM     14  O   LIG    1       19.610  50.889 182.982  0.00  0.00    -0.292 OA
ENDBRANCH   4  13
ENDBRANCH   2   7
ENDBRANCH   1   2
BRANCH   1  15
ATOM     15  C   LIG    1       23.003  44.689 183.891  0.00  0.00    +0.328 C 
BRANCH  15  16
ATOM     16  C   LIG    1       23.797  43.563 184.553  0.00  0.00    +0.256 C 
ATOM     17  N   LIG    1       25.078  43.244 184.228  0.00  0.00    -0.266 N 
ATOM     18  H   LIG    1       25.502  42.566 184.872  0.00  0.00    +0.156 HD
ATOM     19  O   LIG    1       23.317  42.854 185.416  0.00  0.00    -0.272 OA
BRANCH  17  20
ATOM     20  C   LIG    1       25.877  43.732 183.180  0.00  0.00    +0.144 A 
ATOM     21  C   LIG    1       25.842  43.092 181.924  0.00  0.00    +0.082 A 
ATOM     22 CL   LIG    1       24.843  41.701 181.648  0.00  0.00    -0.080 Cl
ATOM     23  C   LIG    1       26.620  43.595 180.894  0.00  0.00    +0.045 A 
ATOM     24  C   LIG    1       27.397  44.722 181.151  0.00  0.00    +0.063 A 
ATOM     25 CL   LIG    1       28.379  45.367 179.877  0.00  0.00    -0.082 Cl
ATOM     26  C   LIG    1       27.372  45.314 182.426  0.00  0.00    +0.059 A 
ATOM     27  C   LIG    1       28.197  46.543 182.743  0.00  0.00    +0.067 C 
ATOM     28  N   LIG    1       26.617  44.817 183.413  0.00  0.00    -0.234 NA
ENDBRANCH  17  20
ENDBRANCH  15  16
ENDBRANCH   1  15
TORSDOF 6
ENDMDL
MODEL 8
REMARK VINA RESULT:      -7.5     22.556     24.657
REMARK  Name = ZINC000006084415
REMARK                            x       y       z     vdW  Elec       q    Type
REMARK                         _______ _______ _______ _____ _____    ______ ____
ROOT
ATOM      1  O   LIG    1       23.269  41.865 211.857  0.00  0.00    -0.451 OA
ENDROOT
BRANCH   1   2
ATOM      2  C   LIG    1       24.197  42.849 211.961  0.00  0.00    +0.356 C 
ATOM      3  O   LIG    1       25.123  42.674 212.742  0.00  0.00    -0.243 OA
BRANCH   2   7
ATOM      4  C   LIG    1       23.911  45.661 209.575  0.00  0.00    +0.041 A 
ATOM      5  C   LIG    1       24.390  44.360 209.853  0.00  0.00    -0.008 A 
ATOM      6  C   LIG    1       25.201  43.487 208.912  0.00  0.00    +0.047 C 
ATOM      7  C   LIG    1       24.000  44.018 211.125  0.00  0.00    +0.128 A 
ATOM      8  N   LIG    1       23.295  45.085 211.618  0.00  0.00    -0.352 N 
ATOM      9  H   LIG    1       22.884  45.117 212.571  0.00  0.00    +0.166 HD
ATOM     10  C   LIG    1       23.228  46.081 210.709  0.00  0.00    +0.024 A 
ATOM     11  C   LIG    1       22.490  47.355 211.073  0.00  0.00    +0.064 C 
BRANCH   4  13
ATOM     12  C   LIG    1       25.417  47.088 207.995  0.00  0.00    +0.091 C 
ATOM     13  C   LIG    1       24.114  46.402 208.327  0.00  0.00    +0.162 C 
ATOM     14  O   LIG    1       23.245  46.507 207.487  0.00  0.00    -0.292 OA
ENDBRANCH   4  13
ENDBRANCH   2   7
ENDBRANCH   1   2
BRANCH   1  15
ATOM     15  C   LIG    1       23.224  40.769 212.841  0.00  0.00    +0.328 C 
BRANCH  15  16
ATOM     16  C   LIG    1       23.710  39.499 212.141  0.00  0.00    +0.256 C 
ATOM     17  N   LIG    1       23.015  38.857 211.166  0.00  0.00    -0.266 N 
ATOM     18  H   LIG    1       23.554  38.114 210.706  0.00  0.00    +0.156 HD
ATOM     19  O   LIG    1       24.761  38.963 212.432  0.00  0.00    -0.272 OA
BRANCH  17  20
ATOM     20  C   LIG    1       21.711  39.094 210.700  0.00  0.00    +0.144 A 
ATOM     21  C   LIG    1       21.503  40.014 209.651  0.00  0.00    +0.082 A 
ATOM     22 CL   LIG    1       22.827  40.876 208.933  0.00  0.00    -0.080 Cl
ATOM     23  C   LIG    1       20.214  40.224 209.189  0.00  0.00    +0.045 A 
ATOM     24  C   LIG    1       19.181  39.503 209.782  0.00  0.00    +0.063 A 
ATOM     25 CL   LIG    1       17.560  39.750 209.219  0.00  0.00    -0.082 Cl
ATOM     26  C   LIG    1       19.465  38.593 210.815  0.00  0.00    +0.059 A 
ATOM     27  C   LIG    1       18.371  37.785 211.480  0.00  0.00    +0.067 C 
ATOM     28  N   LIG    1       20.715  38.401 211.254  0.00  0.00    -0.234 NA
ENDBRANCH  17  20
ENDBRANCH  15  16
ENDBRANCH   1  15
TORSDOF 6
ENDMDL
MODEL 9
REMARK VINA RESULT:      -7.5     28.962     30.337
REMARK  Name = ZINC000006084415
REMARK                            x       y       z     vdW  Elec       q    Type
REMARK                         _______ _______ _______ _____ _____    ______ ____
ROOT
ATOM      1  O   LIG    1       31.498  14.260 196.781  0.00  0.00    -0.451 OA
ENDROOT
BRANCH   1   2
ATOM      2  C   LIG    1       31.478  14.713 195.502  0.00  0.00    +0.356 C 
ATOM      3  O   LIG    1       30.515  14.413 194.810  0.00  0.00    -0.243 OA
BRANCH   2   7
ATOM      4  C   LIG    1       34.288  16.987 194.720  0.00  0.00    +0.041 A 
ATOM      5  C   LIG    1       33.229  16.633 195.588  0.00  0.00    -0.008 A 
ATOM      6  C   LIG    1       32.839  17.360 196.863  0.00  0.00    +0.047 C 
ATOM      7  C   LIG    1       32.609  15.517 195.081  0.00  0.00    +0.128 A 
ATOM      8  N   LIG    1       33.272  15.192 193.926  0.00  0.00    -0.352 N 
ATOM      9  H   LIG    1       33.015  14.392 193.317  0.00  0.00    +0.166 HD
ATOM     10  C   LIG    1       34.281  16.057 193.689  0.00  0.00    +0.024 A 
ATOM     11  C   LIG    1       35.133  15.865 192.448  0.00  0.00    +0.064 C 
BRANCH   4  13
ATOM     12  C   LIG    1       36.384  18.078 195.823  0.00  0.00    +0.091 C 
ATOM     13  C   LIG    1       35.197  18.124 194.893  0.00  0.00    +0.162 C 
ATOM     14  O   LIG    1       35.046  19.170 194.296  0.00  0.00    -0.292 OA
ENDBRANCH   4  13
ENDBRANCH   2   7
ENDBRANCH   1   2
BRANCH   1  15
ATOM     15  C   LIG    1       30.245  14.096 197.538  0.00  0.00    +0.328 C 
BRANCH  15  16
ATOM     16  C   LIG    1       29.914  15.443 198.182  0.00  0.00    +0.256 C 
ATOM     17  N   LIG    1       28.850  16.212 197.827  0.00  0.00    -0.266 N 
ATOM     18  H   LIG    1       28.695  17.005 198.461  0.00  0.00    +0.156 HD
ATOM     19  O   LIG    1       30.604  15.930 199.055  0.00  0.00    -0.272 OA
BRANCH  17  20
ATOM     20  C   LIG    1       27.949  16.047 196.762  0.00  0.00    +0.144 A 
ATOM     21  C   LIG    1       28.169  16.737 195.552  0.00  0.00    +0.082 A 
ATOM     22 CL   LIG    1       29.524  17.803 195.356  0.00  0.00    -0.080 Cl
ATOM     23  C   LIG    1       27.284  16.550 194.503  0.00  0.00    +0.045 A 
ATOM     24  C   LIG    1       26.217  15.676 194.696  0.00  0.00    +0.063 A 
ATOM     25 CL   LIG    1       25.096  15.428 193.396  0.00  0.00    -0.082 Cl
ATOM     26  C   LIG    1       26.068  15.013 195.925  0.00  0.00    +0.059 A 
ATOM     27  C   LIG    1       24.925  14.050 196.172  0.00  0.00    +0.067 C 
ATOM     28  N   LIG    1       26.930  15.203 196.932  0.00  0.00    -0.234 NA
ENDBRANCH  17  20
ENDBRANCH  15  16
ENDBRANCH   1  15
TORSDOF 6
ENDMDL
