REMARK VINA RESULT:      -5.7     29.887     31.875
REMARK  Name = ZINC000000623135
REMARK                            x       y       z     vdW  Elec       q    Type
REMARK                         _______ _______ _______ _____ _____    ______ ____
ROOT
ATOM      1  N   LIG    1       30.978  16.831 198.491  0.00  0.00    -0.299 N 
ATOM      2  H   LIG    1       31.921  16.431 198.447  0.00  0.00    +0.150 HD
ENDROOT
BRANCH   1   5
ATOM      3  C   LIG    1       29.787  18.885 200.375  0.00  0.00    +0.409 C 
ATOM      4  N   LIG    1       30.984  18.774 199.726  0.00  0.00    -0.212 N 
ATOM      5  C   LIG    1       31.013  18.254 198.364  0.00  0.00    +0.235 C 
ATOM      6  S   LIG    1       32.732  18.550 197.764  0.00  0.00    -0.086 S 
ATOM      7  C   LIG    1       33.227  19.036 199.352  0.00  0.00    +0.006 C 
ATOM      8  C   LIG    1       34.572  19.378 199.911  0.00  0.00    +0.044 C 
ATOM      9  C   LIG    1       34.142  20.035 201.267  0.00  0.00    +0.011 C 
ATOM     10  C   LIG    1       32.700  19.535 201.613  0.00  0.00    +0.052 C 
ATOM     11  C   LIG    1       32.259  19.115 200.247  0.00  0.00    +0.029 C 
ATOM     12  O   LIG    1       29.695  19.220 201.552  0.00  0.00    -0.226 OA
BRANCH   3  13
ATOM     13  O   LIG    1       28.693  18.619 199.624  0.00  0.00    -0.450 OA
BRANCH  13  15
ATOM     14  C   LIG    1       28.111  20.598 198.471  0.00  0.00    +0.048 C 
ATOM     15  C   LIG    1       27.609  19.565 199.480  0.00  0.00    +0.230 C 
ENDBRANCH  13  15
ENDBRANCH   3  13
ENDBRANCH   1   5
BRANCH   1  16
ATOM     16  C   LIG    1       30.076  16.158 197.722  0.00  0.00    +0.136 C 
ATOM     17  S   LIG    1       30.127  14.513 197.409  0.00  0.00    -0.018 S 
BRANCH  16  18
ATOM     18  N   LIG    1       29.066  16.960 197.219  0.00  0.00    -0.297 N 
ATOM     19  H   LIG    1       29.287  17.963 197.212  0.00  0.00    +0.154 HD
BRANCH  18  20
ATOM     20  C   LIG    1       27.924  16.530 196.509  0.00  0.00    +0.033 A 
ATOM     21  C   LIG    1       26.776  16.118 197.192  0.00  0.00    +0.027 A 
ATOM     22  C   LIG    1       25.668  15.691 196.470  0.00  0.00    +0.047 A 
ATOM     23  C   LIG    1       25.710  15.687 195.076  0.00  0.00    +0.120 A 
ATOM     24  C   LIG    1       26.854  16.111 194.392  0.00  0.00    +0.047 A 
ATOM     25  C   LIG    1       27.965  16.536 195.113  0.00  0.00    +0.027 A 
BRANCH  23  26
ATOM     26  O   LIG    1       24.580  15.248 194.414  0.00  0.00    -0.495 OA
ATOM     27  C   LIG    1       24.492  15.009 192.991  0.00  0.00    +0.277 C 
ENDBRANCH  23  26
ENDBRANCH  18  20
ENDBRANCH  16  18
ENDBRANCH   1  16
TORSDOF 7
