REMARK VINA RESULT:      -7.8     26.295     29.432
REMARK  Name = ZINC000000622956
REMARK                            x       y       z     vdW  Elec       q    Type
REMARK                         _______ _______ _______ _____ _____    ______ ____
ROOT
ATOM      1  C   LIG    1       22.501  41.606 209.731  0.00  0.00    +0.271 C 
ATOM      2  N   LIG    1       22.663  41.328 211.138  0.00  0.00    -0.157 N 
ATOM      3  C   LIG    1       21.525  41.022 211.720  0.00  0.00    +0.250 C 
ATOM      4  C   LIG    1       21.363  40.642 213.184  0.00  0.00    +0.124 C 
ATOM      5  C   LIG    1       21.030  39.133 213.241  0.00  0.00    +0.012 C 
ATOM      6  C   LIG    1       19.543  38.915 212.905  0.00  0.00    +0.004 C 
ATOM      7  C   LIG    1       19.127  39.205 211.447  0.00  0.00    +0.045 C 
ATOM      8  C   LIG    1       19.146  40.723 211.181  0.00  0.00    +0.236 C 
ATOM      9  N   LIG    1       20.538  41.067 210.863  0.00  0.00    -0.258 N 
ATOM     10  C   LIG    1       20.985  41.402 209.494  0.00  0.00    +0.323 C 
ENDROOT
BRANCH   1  11
ATOM     11  C   LIG    1       22.932  43.036 209.385  0.00  0.00    +0.034 A 
ATOM     12  C   LIG    1       24.022  43.284 208.532  0.00  0.00    +0.060 A 
ATOM     13  C   LIG    1       24.358  44.599 208.247  0.00  0.00    +0.167 A 
ATOM     14  O   LIG    1       25.367  45.026 207.458  0.00  0.00    -0.453 OA
ATOM     15  C   LIG    1       25.295  46.509 207.467  0.00  0.00    +0.466 C 
ATOM     16  O   LIG    1       24.154  46.835 208.356  0.00  0.00    -0.453 OA
ATOM     17  C   LIG    1       23.653  45.652 208.769  0.00  0.00    +0.166 A 
ATOM     18  C   LIG    1       22.569  45.445 209.605  0.00  0.00    +0.050 A 
ATOM     19  C   LIG    1       22.209  44.130 209.909  0.00  0.00    +0.014 A 
ENDBRANCH   1  11
BRANCH   2  20
ATOM     20  C   LIG    1       23.923  41.299 211.785  0.00  0.00    +0.124 A 
ATOM     21  C   LIG    1       24.525  40.063 212.012  0.00  0.00    +0.050 A 
ATOM     22  C   LIG    1       25.762  40.021 212.650  0.00  0.00    +0.024 A 
ATOM     23  C   LIG    1       26.379  41.210 213.053  0.00  0.00    +0.041 A 
ATOM     24 CL   LIG    1       27.916  41.153 213.847  0.00  0.00    -0.084 Cl
ATOM     25  C   LIG    1       25.761  42.443 212.821  0.00  0.00    +0.024 A 
ATOM     26  C   LIG    1       24.525  42.492 212.184  0.00  0.00    +0.050 A 
ENDBRANCH   2  20
BRANCH   1  27
ATOM     27  O   LIG    1       23.261  40.628 209.034  0.00  0.00    -0.347 OA
ATOM     28  H   LIG    1       23.100  39.771 209.457  0.00  0.00    +0.215 HD
ENDBRANCH   1  27
TORSDOF 3
