REMARK VINA RESULT:      -8.3      1.637      3.220
REMARK  Name = ZINC000006086009
REMARK                            x       y       z     vdW  Elec       q    Type
REMARK                         _______ _______ _______ _____ _____    ______ ____
ROOT
ATOM      1  N   LIG    1       22.055  45.550 184.133  0.00  0.00    -0.286 NA
ATOM      2  C   LIG    1       22.251  44.150 183.675  0.00  0.00    +0.106 C 
ENDROOT
BRANCH   1   3
ATOM      3  C   LIG    1       22.299  46.531 182.996  0.00  0.00    +0.140 C 
ATOM      4  C   LIG    1       21.164  46.296 181.977  0.00  0.00    +0.034 C 
BRANCH   3   7
ATOM      5  N   LIG    1       21.009  48.550 183.602  0.00  0.00    -0.281 N 
ATOM      6  H   LIG    1       20.217  47.931 183.387  0.00  0.00    +0.155 HD
ATOM      7  C   LIG    1       22.262  48.016 183.435  0.00  0.00    +0.234 C 
ATOM      8  O   LIG    1       23.251  48.716 183.560  0.00  0.00    -0.274 OA
BRANCH   5  10
ATOM      9  C   LIG    1       19.658  50.182 184.732  0.00  0.00    +0.141 A 
ATOM     10  C   LIG    1       20.650  49.909 183.780  0.00  0.00    +0.076 A 
ATOM     11  C   LIG    1       21.245  50.950 183.066  0.00  0.00    +0.027 A 
ATOM     12  C   LIG    1       20.833  52.261 183.297  0.00  0.00    +0.002 A 
ATOM     13  C   LIG    1       19.840  52.533 184.237  0.00  0.00    +0.004 A 
ATOM     14  C   LIG    1       19.250  51.496 184.960  0.00  0.00    +0.047 A 
BRANCH   9  16
ATOM     15  C   LIG    1       18.435  49.218 186.708  0.00  0.00    +0.277 C 
ATOM     16  O   LIG    1       19.099  49.107 185.427  0.00  0.00    -0.493 OA
ENDBRANCH   9  16
ENDBRANCH   5  10
ENDBRANCH   3   7
ENDBRANCH   1   3
BRANCH   1  17
ATOM     17  C   LIG    1       22.910  45.815 185.376  0.00  0.00    +0.181 C 
BRANCH  17  18
ATOM     18  C   LIG    1       22.019  46.195 186.555  0.00  0.00    +0.231 C 
ATOM     19  N   LIG    1       22.325  45.563 187.732  0.00  0.00    -0.284 N 
ATOM     20  H   LIG    1       23.168  44.974 187.650  0.00  0.00    +0.155 HD
ATOM     21  O   LIG    1       21.093  46.974 186.457  0.00  0.00    -0.274 OA
BRANCH  19  22
ATOM     22  C   LIG    1       21.677  45.587 188.991  0.00  0.00    +0.041 A 
ATOM     23  C   LIG    1       22.238  44.787 190.036  0.00  0.00    +0.003 A 
ATOM     24  C   LIG    1       23.368  43.938 189.854  0.00  0.00    +0.010 A 
ATOM     25  C   LIG    1       23.872  43.199 190.899  0.00  0.00    +0.001 A 
ATOM     26  C   LIG    1       23.271  43.265 192.171  0.00  0.00    +0.001 A 
ATOM     27  C   LIG    1       22.173  44.064 192.376  0.00  0.00    +0.008 A 
ATOM     28  C   LIG    1       21.629  44.836 191.316  0.00  0.00    -0.016 A 
ATOM     29  C   LIG    1       20.485  45.651 191.518  0.00  0.00    +0.008 A 
ATOM     30  C   LIG    1       19.965  46.401 190.489  0.00  0.00    +0.002 A 
ATOM     31  C   LIG    1       20.563  46.376 189.217  0.00  0.00    +0.024 A 
ENDBRANCH  19  22
ENDBRANCH  17  18
ENDBRANCH   1  17
TORSDOF 7
