REMARK VINA RESULT:      -7.5     21.019     23.020
REMARK  Name = ZINC000022625070
REMARK                            x       y       z     vdW  Elec       q    Type
REMARK                         _______ _______ _______ _____ _____    ______ ____
ROOT
ATOM      1  C   LIG    1       32.316  18.385 185.145  0.00  0.00    +0.171 A 
ATOM      2  C   LIG    1       31.061  17.786 185.033  0.00  0.00    +0.032 A 
ATOM      3  C   LIG    1       30.073  17.240 186.049  0.00  0.00    +0.046 C 
ATOM      4  C   LIG    1       28.640  17.400 185.470  0.00  0.00    +0.040 C 
ATOM      5  C   LIG    1       28.554  16.892 184.022  0.00  0.00    -0.036 A 
ATOM      6  C   LIG    1       29.634  17.093 183.146  0.00  0.00    +0.027 A 
ATOM      7  C   LIG    1       29.530  16.717 181.805  0.00  0.00    +0.057 A 
ATOM      8  C   LIG    1       28.353  16.122 181.352  0.00  0.00    +0.121 A 
ATOM      9  C   LIG    1       27.285  15.904 182.218  0.00  0.00    +0.046 A 
ATOM     10  C   LIG    1       27.386  16.295 183.551  0.00  0.00    +0.008 A 
ATOM     11  C   LIG    1       30.826  17.669 183.719  0.00  0.00    +0.171 A 
ATOM     12  O   LIG    1       31.884  18.171 183.069  0.00  0.00    -0.354 OA
ATOM     13  N   LIG    1       32.789  18.608 183.939  0.00  0.00    -0.073 NA
ENDROOT
BRANCH   1  16
ATOM     14  N   LIG    1       34.384  18.548 186.413  0.00  0.00    -0.307 N 
ATOM     15  H   LIG    1       34.802  18.134 185.571  0.00  0.00    +0.149 HD
ATOM     16  C   LIG    1       33.026  18.715 186.386  0.00  0.00    +0.266 C 
ATOM     17  O   LIG    1       32.482  19.125 187.410  0.00  0.00    -0.268 OA
BRANCH  14  18
ATOM     18  C   LIG    1       35.185  18.618 187.620  0.00  0.00    +0.070 C 
ATOM     19  C   LIG    1       35.566  20.088 187.797  0.00  0.00    +0.028 C 
BRANCH  18  20
ATOM     20  C   LIG    1       36.398  17.686 187.443  0.00  0.00    +0.023 C 
BRANCH  20  21
ATOM     21  C   LIG    1       36.693  16.732 188.621  0.00  0.00    +0.017 C 
BRANCH  21  22
ATOM     22  C   LIG    1       37.526  17.542 189.643  0.00  0.00    +0.084 C 
BRANCH  22  23
ATOM     23  N   LIG    1       37.283  17.032 191.018  0.00  0.00    -0.303 NA
BRANCH  23  25
ATOM     24  C   LIG    1       37.812  19.304 191.468  0.00  0.00    +0.020 C 
ATOM     25  C   LIG    1       37.024  18.106 192.003  0.00  0.00    +0.081 C 
ENDBRANCH  23  25
BRANCH  23  26
ATOM     26  C   LIG    1       36.297  15.934 191.072  0.00  0.00    +0.081 C 
ATOM     27  C   LIG    1       35.494  16.176 192.356  0.00  0.00    +0.020 C 
ENDBRANCH  23  26
ENDBRANCH  22  23
ENDBRANCH  21  22
ENDBRANCH  20  21
ENDBRANCH  18  20
ENDBRANCH  14  18
ENDBRANCH   1  16
BRANCH   8  28
ATOM     28  O   LIG    1       28.192  15.725 180.044  0.00  0.00    -0.495 OA
ATOM     29  C   LIG    1       28.577  16.501 178.887  0.00  0.00    +0.277 C 
ENDBRANCH   8  28
TORSDOF 9
