REMARK VINA RESULT:      -8.2      1.048      2.474
REMARK  Name = ZINC000009107243
REMARK                            x       y       z     vdW  Elec       q    Type
REMARK                         _______ _______ _______ _____ _____    ______ ____
ROOT
ATOM      1  N   LIG    1       33.851  18.745 185.175  0.00  0.00    -0.285 N 
ATOM      2  H   LIG    1       34.620  18.214 184.744  0.00  0.00    +0.155 HD
ATOM      3  C   LIG    1       34.233  19.907 185.797  0.00  0.00    +0.222 C 
ATOM      4  O   LIG    1       33.407  20.704 186.190  0.00  0.00    -0.275 OA
ENDROOT
BRANCH   1   9
ATOM      5  N   LIG    1       28.576  16.987 184.345  0.00  0.00    -0.271 N 
ATOM      6  C   LIG    1       29.918  17.431 184.573  0.00  0.00    +0.040 A 
ATOM      7  C   LIG    1       30.314  17.950 185.813  0.00  0.00    +0.025 A 
ATOM      8  C   LIG    1       31.625  18.374 185.994  0.00  0.00    +0.025 A 
ATOM      9  C   LIG    1       32.535  18.277 184.940  0.00  0.00    +0.034 A 
ATOM     10  C   LIG    1       32.143  17.762 183.701  0.00  0.00    +0.028 A 
ATOM     11  C   LIG    1       30.834  17.328 183.514  0.00  0.00    -0.024 A 
ATOM     12  C   LIG    1       30.399  16.763 182.175  0.00  0.00    +0.046 C 
ATOM     13  C   LIG    1       29.485  15.571 182.506  0.00  0.00    +0.101 C 
ATOM     14  C   LIG    1       28.317  16.126 183.292  0.00  0.00    +0.220 C 
ATOM     15  O   LIG    1       27.170  15.832 183.010  0.00  0.00    -0.275 OA
BRANCH   5  16
ATOM     16  C   LIG    1       27.446  17.493 185.151  0.00  0.00    +0.113 C 
BRANCH  16  18
ATOM     17  C   LIG    1       27.099  17.537 187.602  0.00  0.00    +0.005 C 
ATOM     18  C   LIG    1       27.394  16.610 186.415  0.00  0.00    +0.016 C 
ENDBRANCH  16  18
ENDBRANCH   5  16
ENDBRANCH   1   9
BRANCH   3  19
ATOM     19  C   LIG    1       35.721  20.154 185.967  0.00  0.00    +0.131 C 
BRANCH  19  20
ATOM     20  C   LIG    1       36.192  19.381 187.192  0.00  0.00    -0.035 A 
ATOM     21  C   LIG    1       36.304  20.018 188.429  0.00  0.00    +0.053 A 
ATOM     22  C   LIG    1       36.706  19.296 189.556  0.00  0.00    +0.162 A 
ATOM     23  C   LIG    1       36.999  17.925 189.439  0.00  0.00    +0.161 A 
ATOM     24  C   LIG    1       36.891  17.297 188.203  0.00  0.00    +0.049 A 
ATOM     25  C   LIG    1       36.489  18.021 187.084  0.00  0.00    +0.008 A 
BRANCH  22  26
ATOM     26  O   LIG    1       36.808  19.941 190.784  0.00  0.00    -0.491 OA
ATOM     27  C   LIG    1       37.060  21.348 190.999  0.00  0.00    +0.277 C 
ENDBRANCH  22  26
BRANCH  23  28
ATOM     28  O   LIG    1       37.402  17.103 190.486  0.00  0.00    -0.491 OA
ATOM     29  C   LIG    1       36.711  15.960 191.037  0.00  0.00    +0.277 C 
ENDBRANCH  23  28
ENDBRANCH  19  20
ENDBRANCH   3  19
TORSDOF 7
