REMARK VINA RESULT:      -6.7      5.619     11.039
REMARK  Name = ZINC000006084756
REMARK                            x       y       z     vdW  Elec       q    Type
REMARK                         _______ _______ _______ _____ _____    ______ ____
ROOT
ATOM      1  C   LIG    1       26.997  46.433 211.450  0.00  0.00    +0.125 C 
ENDROOT
BRANCH   1   2
ATOM      2  N   LIG    1       27.692  45.395 210.654  0.00  0.00    -0.336 N 
ATOM      3  H   LIG    1       28.679  45.616 210.449  0.00  0.00    +0.147 HD
BRANCH   2   4
ATOM      4  C   LIG    1       27.457  44.041 210.892  0.00  0.00    +0.079 C 
ATOM      5  S   LIG    1       28.594  43.127 211.731  0.00  0.00    -0.035 S 
BRANCH   4   6
ATOM      6  C   LIG    1       26.189  43.512 210.379  0.00  0.00    +0.003 A 
ATOM      7  C   LIG    1       25.209  43.050 211.269  0.00  0.00    +0.012 A 
ATOM      8  C   LIG    1       24.002  42.544 210.803  0.00  0.00    +0.024 A 
ATOM      9  C   LIG    1       23.757  42.493 209.430  0.00  0.00    +0.033 A 
ATOM     10  C   LIG    1       24.726  42.935 208.524  0.00  0.00    +0.024 A 
ATOM     11  C   LIG    1       25.929  43.442 208.998  0.00  0.00    +0.012 A 
BRANCH   9  12
ATOM     12  N   LIG    1       22.514  41.951 209.022  0.00  0.00    -0.286 N 
ATOM     13  H   LIG    1       21.851  42.606 208.595  0.00  0.00    +0.155 HD
ATOM     14  C   LIG    1       22.097  40.647 209.074  0.00  0.00    +0.214 C 
ATOM     15  O   LIG    1       22.817  39.762 209.479  0.00  0.00    -0.276 OA
ATOM     16  C   LIG    1       20.704  40.381 208.576  0.00  0.00    +0.109 C 
ENDBRANCH   9  12
ENDBRANCH   4   6
ENDBRANCH   2   4
ENDBRANCH   1   2
BRANCH   1  17
ATOM     17  C   LIG    1       26.005  47.180 210.506  0.00  0.00    +0.104 C 
BRANCH  17  21
ATOM     18  C   LIG    1       21.983  45.680 211.020  0.00  0.00    +0.120 A 
ATOM     19  C   LIG    1       22.736  45.978 212.149  0.00  0.00    +0.046 A 
ATOM     20  C   LIG    1       24.025  46.479 212.004  0.00  0.00    +0.009 A 
ATOM     21  C   LIG    1       24.572  46.682 210.729  0.00  0.00    -0.029 A 
ATOM     22  C   LIG    1       23.790  46.399 209.606  0.00  0.00    +0.009 A 
ATOM     23  C   LIG    1       22.500  45.896 209.744  0.00  0.00    +0.046 A 
BRANCH  18  25
ATOM     24  C   LIG    1       19.666  45.839 211.950  0.00  0.00    +0.277 C 
ATOM     25  O   LIG    1       20.721  45.168 211.223  0.00  0.00    -0.495 OA
ENDBRANCH  18  25
ENDBRANCH  17  21
BRANCH  17  26
ATOM     26  N   LIG    1       26.038  48.660 210.688  0.00  0.00    -0.294 NA
ATOM     27  C   LIG    1       25.968  49.419 209.426  0.00  0.00    +0.085 C 
ATOM     28  C   LIG    1       27.045  50.494 209.597  0.00  0.00    +0.017 C 
ATOM     29  C   LIG    1       27.109  50.661 211.112  0.00  0.00    +0.017 C 
ATOM     30  C   LIG    1       27.079  49.206 211.567  0.00  0.00    +0.085 C 
ENDBRANCH  17  26
ENDBRANCH   1  17
TORSDOF 8
