REMARK VINA RESULT:      -7.1     29.568     30.951
REMARK  Name = ZINC000006087397
REMARK                            x       y       z     vdW  Elec       q    Type
REMARK                         _______ _______ _______ _____ _____    ______ ____
ROOT
ATOM      1  C   LIG    1       38.319  20.927 192.983  0.00  0.00    +0.214 C 
ENDROOT
BRANCH   1   7
ATOM      2  C   LIG    1       42.448  23.099 194.270  0.00  0.00    +0.010 C 
ATOM      3  C   LIG    1       41.486  24.260 194.608  0.00  0.00    +0.018 C 
ATOM      4  C   LIG    1       40.011  23.769 194.771  0.00  0.00    +0.115 C 
ATOM      5  C   LIG    1       39.495  23.082 193.511  0.00  0.00    +0.247 C 
ATOM      6  O   LIG    1       39.448  23.491 192.365  0.00  0.00    -0.273 OA
ATOM      7  N   LIG    1       39.052  21.844 193.864  0.00  0.00    -0.215 N 
ATOM      8  C   LIG    1       39.266  21.626 195.199  0.00  0.00    +0.310 C 
ATOM      9  O   LIG    1       38.960  20.620 195.813  0.00  0.00    -0.252 OA
ATOM     10  N   LIG    1       39.884  22.693 195.745  0.00  0.00    -0.285 N 
ATOM     11  H   LIG    1       39.887  22.816 196.762  0.00  0.00    +0.151 HD
ATOM     12  C   LIG    1       39.067  24.939 195.149  0.00  0.00    +0.035 C 
ATOM     13  C   LIG    1       39.571  25.615 196.439  0.00  0.00    +0.003 C 
ATOM     14  C   LIG    1       41.018  26.105 196.285  0.00  0.00    +0.000 C 
ATOM     15  C   LIG    1       41.951  24.948 195.907  0.00  0.00    +0.006 C 
ENDBRANCH   1   7
BRANCH   1  16
ATOM     16  C   LIG    1       39.193  20.689 191.747  0.00  0.00    +0.238 C 
ATOM     17  N   LIG    1       38.691  20.781 190.442  0.00  0.00    -0.267 N 
ATOM     18  O   LIG    1       40.362  20.380 191.900  0.00  0.00    -0.274 OA
BRANCH  17  19
ATOM     19  C   LIG    1       39.522  20.624 189.286  0.00  0.00    +0.010 C 
ATOM     20  C   LIG    1       39.805  21.884 188.480  0.00  0.00    +0.051 C 
ATOM     21  C   LIG    1       40.193  21.452 187.049  0.00  0.00    +0.006 C 
ATOM     22  C   LIG    1       41.372  20.466 187.174  0.00  0.00    +0.004 C 
ATOM     23  C   LIG    1       40.828  19.129 187.721  0.00  0.00    +0.029 C 
ATOM     24  C   LIG    1       39.997  19.405 188.962  0.00  0.00    -0.008 C 
ENDBRANCH  17  19
BRANCH  17  25
ATOM     25  C   LIG    1       37.268  21.085 190.186  0.00  0.00    +0.187 C 
BRANCH  25  26
ATOM     26  C   LIG    1       36.703  19.852 189.508  0.00  0.00    +0.122 A 
ATOM     27  O   LIG    1       36.823  18.624 190.081  0.00  0.00    -0.466 OA
ATOM     28  C   LIG    1       36.224  17.730 189.255  0.00  0.00    +0.195 A 
ATOM     29  C   LIG    1       35.730  18.374 188.175  0.00  0.00    +0.041 A 
ATOM     30  C   LIG    1       36.035  19.729 188.337  0.00  0.00    +0.046 A 
ENDBRANCH  25  26
ENDBRANCH  17  25
ENDBRANCH   1  16
TORSDOF 5
