REMARK VINA RESULT:      -7.5     28.963     31.155
REMARK  Name = ZINC000006087399
REMARK                            x       y       z     vdW  Elec       q    Type
REMARK                         _______ _______ _______ _____ _____    ______ ____
ROOT
ATOM      1  C   LIG    1       38.061  21.040 192.660  0.00  0.00    +0.214 C 
ENDROOT
BRANCH   1   7
ATOM      2  C   LIG    1       38.628  20.057 187.309  0.00  0.00    +0.010 C 
ATOM      3  C   LIG    1       37.349  20.737 187.850  0.00  0.00    +0.018 C 
ATOM      4  C   LIG    1       36.880  20.133 189.217  0.00  0.00    +0.115 C 
ATOM      5  C   LIG    1       37.950  20.199 190.309  0.00  0.00    +0.247 C 
ATOM      6  O   LIG    1       39.044  19.667 190.379  0.00  0.00    -0.273 OA
ATOM      7  N   LIG    1       37.458  20.955 191.327  0.00  0.00    -0.215 N 
ATOM      8  C   LIG    1       36.193  21.379 191.041  0.00  0.00    +0.310 C 
ATOM      9  O   LIG    1       35.470  22.000 191.799  0.00  0.00    -0.252 OA
ATOM     10  N   LIG    1       35.854  20.996 189.795  0.00  0.00    -0.285 N 
ATOM     11  H   LIG    1       34.864  20.958 189.534  0.00  0.00    +0.151 HD
ATOM     12  C   LIG    1       36.330  18.687 189.091  0.00  0.00    +0.035 C 
ATOM     13  C   LIG    1       35.199  18.648 188.043  0.00  0.00    +0.003 C 
ATOM     14  C   LIG    1       35.659  19.192 186.685  0.00  0.00    +0.000 C 
ATOM     15  C   LIG    1       36.203  20.622 186.822  0.00  0.00    +0.006 C 
ENDBRANCH   1   7
BRANCH   1  16
ATOM     16  C   LIG    1       39.177  22.087 192.636  0.00  0.00    +0.238 C 
ATOM     17  N   LIG    1       40.191  21.977 193.571  0.00  0.00    -0.267 N 
ATOM     18  O   LIG    1       39.220  23.011 191.833  0.00  0.00    -0.274 OA
BRANCH  17  19
ATOM     19  C   LIG    1       40.218  20.928 194.518  0.00  0.00    +0.010 C 
ATOM     20  C   LIG    1       39.206  21.046 195.643  0.00  0.00    +0.051 C 
ATOM     21  C   LIG    1       39.669  20.117 196.787  0.00  0.00    +0.006 C 
ATOM     22  C   LIG    1       39.902  18.714 196.191  0.00  0.00    +0.004 C 
ATOM     23  C   LIG    1       41.194  18.758 195.344  0.00  0.00    +0.029 C 
ATOM     24  C   LIG    1       41.085  19.912 194.365  0.00  0.00    -0.008 C 
ENDBRANCH  17  19
BRANCH  17  25
ATOM     25  C   LIG    1       41.202  23.041 193.687  0.00  0.00    +0.187 C 
BRANCH  25  26
ATOM     26  C   LIG    1       40.770  23.892 194.865  0.00  0.00    +0.122 A 
ATOM     27  O   LIG    1       39.589  24.569 194.832  0.00  0.00    -0.466 OA
ATOM     28  C   LIG    1       39.478  25.246 196.004  0.00  0.00    +0.195 A 
ATOM     29  C   LIG    1       40.565  25.005 196.768  0.00  0.00    +0.041 A 
ATOM     30  C   LIG    1       41.390  24.140 196.042  0.00  0.00    +0.046 A 
ENDBRANCH  25  26
ENDBRANCH  17  25
ENDBRANCH   1  16
TORSDOF 5
