REMARK VINA RESULT:      -6.5     27.624     30.533
REMARK  Name = ZINC000000608130
REMARK                            x       y       z     vdW  Elec       q    Type
REMARK                         _______ _______ _______ _____ _____    ______ ____
ROOT
ATOM      1  C   LIG    1       30.016  18.798 197.207  0.00  0.00    +0.264 C 
ATOM      2  C   LIG    1       29.470  19.536 198.459  0.00  0.00    +0.145 C 
ATOM      3  C   LIG    1       28.788  18.661 199.526  0.00  0.00    +0.059 C 
ATOM      4  C   LIG    1       28.435  20.576 198.002  0.00  0.00    +0.059 C 
ATOM      5  O   LIG    1       30.545  20.261 199.091  0.00  0.00    -0.482 OA
ATOM      6  C   LIG    1       31.827  19.785 199.141  0.00  0.00    +0.132 A 
ATOM      7  C   LIG    1       32.736  20.488 199.936  0.00  0.00    +0.047 A 
ATOM      8  C   LIG    1       34.051  20.053 200.032  0.00  0.00    +0.015 A 
ATOM      9  C   LIG    1       34.467  18.910 199.334  0.00  0.00    +0.018 A 
ATOM     10  C   LIG    1       33.529  18.225 198.539  0.00  0.00    +0.149 A 
ATOM     11  O   LIG    1       33.928  17.090 197.854  0.00  0.00    -0.422 OA
ATOM     12  C   LIG    1       35.193  16.596 197.918  0.00  0.00    +0.337 A 
ATOM     13  O   LIG    1       35.433  15.580 197.286  0.00  0.00    -0.245 OA
ATOM     14  C   LIG    1       36.160  17.297 198.722  0.00  0.00    +0.092 A 
ATOM     15  C   LIG    1       35.817  18.416 199.408  0.00  0.00    +0.018 A 
ATOM     16  C   LIG    1       32.205  18.652 198.420  0.00  0.00    +0.081 A 
ATOM     17  C   LIG    1       31.220  17.883 197.554  0.00  0.00    +0.258 C 
ENDROOT
BRANCH   1  18
ATOM     18  O   LIG    1       28.940  17.996 196.598  0.00  0.00    -0.453 OA
BRANCH  18  19
ATOM     19  C   LIG    1       28.764  18.003 195.265  0.00  0.00    +0.310 C 
ATOM     20  O   LIG    1       28.708  19.072 194.659  0.00  0.00    -0.251 OA
BRANCH  19  21
ATOM     21  C   LIG    1       28.544  16.666 194.538  0.00  0.00    +0.094 C 
ATOM     22  C   LIG    1       28.840  16.791 193.029  0.00  0.00    +0.019 C 
BRANCH  21  24
ATOM     23  C   LIG    1       27.033  15.171 196.011  0.00  0.00    +0.004 C 
ATOM     24  C   LIG    1       27.127  16.117 194.804  0.00  0.00    +0.011 C 
ENDBRANCH  21  24
ENDBRANCH  19  21
ENDBRANCH  18  19
ENDBRANCH   1  18
BRANCH  17  25
ATOM     25  O   LIG    1       30.784  16.740 198.347  0.00  0.00    -0.453 OA
BRANCH  25  26
ATOM     26  C   LIG    1       30.771  15.508 197.843  0.00  0.00    +0.305 C 
ATOM     27  O   LIG    1       30.390  14.549 198.505  0.00  0.00    -0.251 OA
ATOM     28  C   LIG    1       31.270  15.324 196.425  0.00  0.00    +0.136 C 
ENDBRANCH  25  26
ENDBRANCH  17  25
TORSDOF 6
