REMARK VINA RESULT:      -7.7     21.192     23.031
REMARK  Name = ZINC000022624335
REMARK                            x       y       z     vdW  Elec       q    Type
REMARK                         _______ _______ _______ _____ _____    ______ ____
ROOT
ATOM      1  C   LIG    1       28.084  26.428 206.327  0.00  0.00    +0.121 A 
ATOM      2  N   LIG    1       28.743  26.546 205.167  0.00  0.00    -0.238 NA
ATOM      3  C   LIG    1       28.480  27.590 204.380  0.00  0.00    +0.136 A 
ATOM      4  C   LIG    1       27.542  28.567 204.733  0.00  0.00    +0.052 A 
ATOM      5  C   LIG    1       26.859  28.465 205.944  0.00  0.00    +0.028 A 
ATOM      6  C   LIG    1       27.142  27.377 206.750  0.00  0.00    +0.045 A 
ENDROOT
BRANCH   1  11
ATOM      7  C   LIG    1       27.385  22.060 209.252  0.00  0.00    +0.221 C 
ATOM      8  N   LIG    1       28.219  23.020 208.773  0.00  0.00    -0.298 N 
ATOM      9  C   LIG    1       28.555  24.338 209.368  0.00  0.00    +0.126 C 
ATOM     10  C   LIG    1       27.845  25.420 208.517  0.00  0.00    +0.125 C 
ATOM     11  N   LIG    1       28.360  25.314 207.127  0.00  0.00    -0.312 N 
ATOM     12  C   LIG    1       28.062  23.974 206.531  0.00  0.00    +0.125 C 
ATOM     13  C   LIG    1       28.778  22.908 207.394  0.00  0.00    +0.126 C 
ATOM     14  O   LIG    1       27.144  21.084 208.544  0.00  0.00    -0.275 OA
BRANCH   7  15
ATOM     15  C   LIG    1       26.706  22.126 210.672  0.00  0.00    +0.041 C 
ATOM     16  C   LIG    1       25.880  20.838 210.942  0.00  0.00    +0.020 C 
ATOM     17  C   LIG    1       27.741  22.113 211.823  0.00  0.00    +0.020 C 
BRANCH  15  19
ATOM     18  C   LIG    1       26.022  24.244 212.040  0.00  0.00    +0.005 C 
ATOM     19  C   LIG    1       25.719  23.317 210.851  0.00  0.00    +0.012 C 
ENDBRANCH  15  19
ENDBRANCH   7  15
ENDBRANCH   1  11
BRANCH   4  20
ATOM     20  N   LIG    1       27.334  29.674 203.858  0.00  0.00    -0.280 N 
ATOM     21  H   LIG    1       26.688  29.544 203.071  0.00  0.00    +0.155 HD
ATOM     22  C   LIG    1       27.844  30.945 204.012  0.00  0.00    +0.248 C 
ATOM     23  O   LIG    1       28.435  31.221 205.048  0.00  0.00    -0.270 OA
BRANCH  22  24
ATOM     24  C   LIG    1       27.614  31.920 202.941  0.00  0.00    +0.037 A 
ATOM     25  C   LIG    1       26.316  32.196 202.466  0.00  0.00    +0.016 A 
ATOM     26  C   LIG    1       26.119  33.134 201.457  0.00  0.00    +0.039 A 
ATOM     27  C   LIG    1       27.222  33.786 200.924  0.00  0.00    +0.123 A 
ATOM     28  F   LIG    1       27.029  34.703 199.942  0.00  0.00    -0.205 F 
ATOM     29  C   LIG    1       28.515  33.529 201.358  0.00  0.00    +0.039 A 
ATOM     30  C   LIG    1       28.708  32.591 202.366  0.00  0.00    +0.016 A 
ENDBRANCH  22  24
ENDBRANCH   4  20
TORSDOF 5
