REMARK VINA RESULT:      -7.0     29.597     32.963
REMARK  Name = ZINC000000538627
REMARK                            x       y       z     vdW  Elec       q    Type
REMARK                         _______ _______ _______ _____ _____    ______ ____
ROOT
ATOM      1  C   LIG    1       21.118  48.612 184.712  0.00  0.00    +0.166 C 
ENDROOT
BRANCH   1   2
ATOM      2  C   LIG    1       20.782  48.637 183.204  0.00  0.00    -0.007 A 
ATOM      3  C   LIG    1       19.544  48.249 182.670  0.00  0.00    +0.007 A 
ATOM      4  C   LIG    1       19.319  48.292 181.297  0.00  0.00    +0.000 A 
ATOM      5  C   LIG    1       20.323  48.721 180.437  0.00  0.00    +0.000 A 
ATOM      6  C   LIG    1       21.554  49.108 180.950  0.00  0.00    +0.000 A 
ATOM      7  C   LIG    1       21.780  49.065 182.323  0.00  0.00    +0.007 A 
ENDBRANCH   1   2
BRANCH   1   8
ATOM      8  C   LIG    1       20.034  49.409 185.472  0.00  0.00    -0.007 A 
ATOM      9  C   LIG    1       19.484  48.923 186.664  0.00  0.00    +0.007 A 
ATOM     10  C   LIG    1       18.486  49.632 187.328  0.00  0.00    +0.000 A 
ATOM     11  C   LIG    1       18.025  50.836 186.812  0.00  0.00    +0.000 A 
ATOM     12  C   LIG    1       18.565  51.334 185.632  0.00  0.00    +0.000 A 
ATOM     13  C   LIG    1       19.561  50.627 184.967  0.00  0.00    +0.007 A 
ENDBRANCH   1   8
BRANCH   1  15
ATOM     14  C   LIG    1       22.435  50.753 185.104  0.00  0.00    +0.195 C 
ATOM     15  O   LIG    1       22.420  49.307 184.881  0.00  0.00    -0.363 OA
ENDBRANCH   1  15
BRANCH   1  16
ATOM     16  C   LIG    1       21.211  47.169 185.289  0.00  0.00    +0.325 C 
BRANCH  16  17
ATOM     17  C   LIG    1       21.959  46.299 184.295  0.00  0.00    +0.350 C 
ATOM     18  O   LIG    1       21.410  45.422 183.635  0.00  0.00    -0.247 OA
BRANCH  17  19
ATOM     19  O   LIG    1       23.310  46.432 184.154  0.00  0.00    -0.478 OA
ATOM     20  H   LIG    1       23.558  46.446 183.226  0.00  0.00    +0.295 HD
ENDBRANCH  17  19
ENDBRANCH  16  17
BRANCH  16  21
ATOM     21  O   LIG    1       21.967  47.176 186.564  0.00  0.00    -0.444 OA
BRANCH  21  22
ATOM     22  C   LIG    1       21.915  46.134 187.419  0.00  0.00    +0.319 A 
ATOM     23  N   LIG    1       22.669  45.066 187.170  0.00  0.00    -0.200 NA
ATOM     24  C   LIG    1       22.622  44.060 188.024  0.00  0.00    +0.045 A 
ATOM     25  C   LIG    1       23.477  42.848 187.748  0.00  0.00    +0.066 C 
ATOM     26  C   LIG    1       21.787  44.134 189.129  0.00  0.00    +0.046 A 
ATOM     27  C   LIG    1       21.020  45.275 189.320  0.00  0.00    +0.045 A 
ATOM     28  C   LIG    1       20.101  45.427 190.507  0.00  0.00    +0.066 C 
ATOM     29  N   LIG    1       21.098  46.269 188.455  0.00  0.00    -0.200 NA
ENDBRANCH  21  22
ENDBRANCH  16  21
ENDBRANCH   1  16
TORSDOF 8
