MODEL 1
REMARK VINA RESULT:      -9.2      0.000      0.000
REMARK  Name = ZINC000049483826
REMARK                            x       y       z     vdW  Elec       q    Type
REMARK                         _______ _______ _______ _____ _____    ______ ____
ROOT
ATOM      1  N   LIG    1       27.726  17.107 186.032  0.00  0.00    -0.175 NA
ATOM      2  C   LIG    1       28.221  16.033 186.899  0.00  0.00    +0.123 C 
ATOM      3  C   LIG    1       26.738  15.776 187.268  0.00  0.00    +0.109 C 
ATOM      4  C   LIG    1       26.430  17.191 186.712  0.00  0.00    +0.123 C 
ENDROOT
BRANCH   3   5
ATOM      5  C   LIG    1       26.517  15.673 188.757  0.00  0.00    +0.233 A 
ATOM      6  O   LIG    1       27.345  16.287 189.576  0.00  0.00    -0.337 OA
ATOM      7  N   LIG    1       26.949  16.051 190.808  0.00  0.00    -0.056 NA
ATOM      8  C   LIG    1       25.900  15.309 190.695  0.00  0.00    +0.209 A 
ATOM      9  N   LIG    1       25.607  15.057 189.393  0.00  0.00    -0.191 NA
BRANCH   8  10
ATOM     10  C   LIG    1       25.128  14.806 191.823  0.00  0.00    +0.060 A 
ATOM     11  S   LIG    1       25.260  15.506 193.410  0.00  0.00    -0.093 S 
ATOM     12  C   LIG    1       24.106  14.393 194.048  0.00  0.00    +0.046 A 
ATOM     13  C   LIG    1       23.648  13.534 193.089  0.00  0.00    +0.008 A 
ATOM     14  C   LIG    1       24.225  13.767 191.832  0.00  0.00    +0.019 A 
ENDBRANCH   8  10
ENDBRANCH   3   5
BRANCH   1  15
ATOM     15  S   LIG    1       27.874  17.053 184.396  0.00  0.00    +0.061 S 
ATOM     16  O   LIG    1       27.499  15.760 183.942  0.00  0.00    -0.153 OA
ATOM     17  O   LIG    1       27.142  18.148 183.857  0.00  0.00    -0.153 OA
BRANCH  15  20
ATOM     18  C   LIG    1       29.435  16.560 181.642  0.00  0.00    +0.046 C 
ATOM     19  C   LIG    1       30.240  17.070 182.828  0.00  0.00    -0.024 A 
ATOM     20  C   LIG    1       29.642  17.319 184.080  0.00  0.00    +0.110 A 
ATOM     21  C   LIG    1       30.440  17.793 185.126  0.00  0.00    +0.048 A 
ATOM     22  C   LIG    1       31.803  18.012 184.940  0.00  0.00    +0.043 A 
ATOM     23 CL   LIG    1       32.771  18.592 186.253  0.00  0.00    -0.083 Cl
ATOM     24  C   LIG    1       32.388  17.765 183.702  0.00  0.00    +0.020 A 
ATOM     25  C   LIG    1       31.607  17.297 182.654  0.00  0.00    +0.007 A 
ENDBRANCH  15  20
ENDBRANCH   1  15
TORSDOF 4
ENDMDL
MODEL 2
REMARK VINA RESULT:      -9.1     26.541     27.556
REMARK  Name = ZINC000049483826
REMARK                            x       y       z     vdW  Elec       q    Type
REMARK                         _______ _______ _______ _____ _____    ______ ____
ROOT
ATOM      1  N   LIG    1       25.577  42.842 184.158  0.00  0.00    -0.175 NA
ATOM      2  C   LIG    1       25.949  42.082 185.356  0.00  0.00    +0.123 C 
ATOM      3  C   LIG    1       24.452  42.152 185.749  0.00  0.00    +0.109 C 
ATOM      4  C   LIG    1       24.312  43.314 184.732  0.00  0.00    +0.123 C 
ENDROOT
BRANCH   3   5
ATOM      5  C   LIG    1       24.244  42.598 187.176  0.00  0.00    +0.233 A 
ATOM      6  O   LIG    1       25.245  42.524 188.027  0.00  0.00    -0.337 OA
ATOM      7  N   LIG    1       24.823  42.965 189.192  0.00  0.00    -0.056 NA
ATOM      8  C   LIG    1       23.588  43.290 189.009  0.00  0.00    +0.209 A 
ATOM      9  N   LIG    1       23.199  43.064 187.728  0.00  0.00    -0.191 NA
BRANCH   8  10
ATOM     10  C   LIG    1       22.722  43.832 190.047  0.00  0.00    +0.060 A 
ATOM     11  S   LIG    1       21.185  44.556 189.674  0.00  0.00    -0.093 S 
ATOM     12  C   LIG    1       20.884  44.884 191.341  0.00  0.00    +0.046 A 
ATOM     13  C   LIG    1       21.911  44.459 192.135  0.00  0.00    +0.008 A 
ATOM     14  C   LIG    1       22.950  43.864 191.405  0.00  0.00    +0.019 A 
ENDBRANCH   8  10
ENDBRANCH   3   5
BRANCH   1  15
ATOM     15  S   LIG    1       25.690  42.209 182.646  0.00  0.00    +0.061 S 
ATOM     16  O   LIG    1       26.601  41.118 182.670  0.00  0.00    -0.153 OA
ATOM     17  O   LIG    1       24.372  41.919 182.196  0.00  0.00    -0.153 OA
BRANCH  15  20
ATOM     18  C   LIG    1       25.548  42.475 179.457  0.00  0.00    +0.046 C 
ATOM     19  C   LIG    1       26.262  43.576 180.226  0.00  0.00    -0.024 A 
ATOM     20  C   LIG    1       26.375  43.549 181.630  0.00  0.00    +0.110 A 
ATOM     21  C   LIG    1       27.039  44.598 182.274  0.00  0.00    +0.048 A 
ATOM     22  C   LIG    1       27.585  45.651 181.544  0.00  0.00    +0.043 A 
ATOM     23 CL   LIG    1       28.409  46.934 182.364  0.00  0.00    -0.083 Cl
ATOM     24  C   LIG    1       27.471  45.673 180.157  0.00  0.00    +0.020 A 
ATOM     25  C   LIG    1       26.811  44.640 179.506  0.00  0.00    +0.007 A 
ENDBRANCH  15  20
ENDBRANCH   1  15
TORSDOF 4
ENDMDL
MODEL 3
REMARK VINA RESULT:      -9.0      1.937      2.275
REMARK  Name = ZINC000049483826
REMARK                            x       y       z     vdW  Elec       q    Type
REMARK                         _______ _______ _______ _____ _____    ______ ____
ROOT
ATOM      1  N   LIG    1       27.049  17.021 186.669  0.00  0.00    -0.175 NA
ATOM      2  C   LIG    1       27.574  15.846 187.372  0.00  0.00    +0.123 C 
ATOM      3  C   LIG    1       26.178  15.737 188.037  0.00  0.00    +0.109 C 
ATOM      4  C   LIG    1       25.940  17.209 187.610  0.00  0.00    +0.123 C 
ENDROOT
BRANCH   3   5
ATOM      5  C   LIG    1       26.256  15.569 189.535  0.00  0.00    +0.233 A 
ATOM      6  O   LIG    1       25.527  14.641 190.118  0.00  0.00    -0.337 OA
ATOM      7  N   LIG    1       25.765  14.689 191.410  0.00  0.00    -0.056 NA
ATOM      8  C   LIG    1       26.626  15.637 191.566  0.00  0.00    +0.209 A 
ATOM      9  N   LIG    1       26.953  16.211 190.380  0.00  0.00    -0.191 NA
BRANCH   8  10
ATOM     10  C   LIG    1       27.177  16.038 192.853  0.00  0.00    +0.060 A 
ATOM     11  S   LIG    1       26.298  15.814 194.337  0.00  0.00    -0.093 S 
ATOM     12  C   LIG    1       27.584  16.506 195.257  0.00  0.00    +0.046 A 
ATOM     13  C   LIG    1       28.628  16.886 194.461  0.00  0.00    +0.008 A 
ATOM     14  C   LIG    1       28.398  16.622 193.103  0.00  0.00    +0.019 A 
ENDBRANCH   8  10
ENDBRANCH   3   5
BRANCH   1  15
ATOM     15  S   LIG    1       26.850  17.050 185.038  0.00  0.00    +0.061 S 
ATOM     16  O   LIG    1       26.296  15.811 184.619  0.00  0.00    -0.153 OA
ATOM     17  O   LIG    1       26.104  18.218 184.713  0.00  0.00    -0.153 OA
BRANCH  15  20
ATOM     18  C   LIG    1       27.764  16.637 181.995  0.00  0.00    +0.046 C 
ATOM     19  C   LIG    1       28.833  17.018 183.007  0.00  0.00    -0.024 A 
ATOM     20  C   LIG    1       28.529  17.223 184.369  0.00  0.00    +0.110 A 
ATOM     21  C   LIG    1       29.561  17.578 185.244  0.00  0.00    +0.048 A 
ATOM     22  C   LIG    1       30.867  17.721 184.785  0.00  0.00    +0.043 A 
ATOM     23 CL   LIG    1       32.128  18.153 185.890  0.00  0.00    -0.083 Cl
ATOM     24  C   LIG    1       31.162  17.517 183.440  0.00  0.00    +0.020 A 
ATOM     25  C   LIG    1       30.147  17.168 182.560  0.00  0.00    +0.007 A 
ENDBRANCH  15  20
ENDBRANCH   1  15
TORSDOF 4
ENDMDL
MODEL 4
REMARK VINA RESULT:      -8.9      6.496      8.955
REMARK  Name = ZINC000049483826
REMARK                            x       y       z     vdW  Elec       q    Type
REMARK                         _______ _______ _______ _____ _____    ______ ____
ROOT
ATOM      1  N   LIG    1       35.017  19.715 186.061  0.00  0.00    -0.175 NA
ATOM      2  C   LIG    1       33.689  20.254 185.749  0.00  0.00    +0.123 C 
ATOM      3  C   LIG    1       33.151  18.826 186.016  0.00  0.00    +0.109 C 
ATOM      4  C   LIG    1       34.608  18.322 185.850  0.00  0.00    +0.123 C 
ENDROOT
BRANCH   3   5
ATOM      5  C   LIG    1       32.234  18.333 184.923  0.00  0.00    +0.233 A 
ATOM      6  O   LIG    1       32.677  18.284 183.684  0.00  0.00    -0.337 OA
ATOM      7  N   LIG    1       31.707  17.827 182.923  0.00  0.00    -0.056 NA
ATOM      8  C   LIG    1       30.716  17.614 183.721  0.00  0.00    +0.209 A 
ATOM      9  N   LIG    1       31.032  17.931 185.003  0.00  0.00    -0.191 NA
BRANCH   8  10
ATOM     10  C   LIG    1       29.421  17.099 183.298  0.00  0.00    +0.060 A 
ATOM     11  S   LIG    1       29.244  15.509 182.616  0.00  0.00    -0.093 S 
ATOM     12  C   LIG    1       27.543  15.728 182.428  0.00  0.00    +0.046 A 
ATOM     13  C   LIG    1       27.139  16.957 182.867  0.00  0.00    +0.008 A 
ATOM     14  C   LIG    1       28.200  17.732 183.358  0.00  0.00    +0.019 A 
ENDBRANCH   8  10
ENDBRANCH   3   5
BRANCH   1  15
ATOM     15  S   LIG    1       35.875  20.203 187.375  0.00  0.00    +0.061 S 
ATOM     16  O   LIG    1       36.825  21.179 186.968  0.00  0.00    -0.153 OA
ATOM     17  O   LIG    1       34.947  20.605 188.376  0.00  0.00    -0.153 OA
BRANCH  15  20
ATOM     18  C   LIG    1       38.479  18.869 186.068  0.00  0.00    +0.046 C 
ATOM     19  C   LIG    1       37.885  18.199 187.298  0.00  0.00    -0.024 A 
ATOM     20  C   LIG    1       36.742  18.712 187.944  0.00  0.00    +0.110 A 
ATOM     21  C   LIG    1       36.253  18.050 189.075  0.00  0.00    +0.048 A 
ATOM     22  C   LIG    1       36.876  16.901 189.554  0.00  0.00    +0.043 A 
ATOM     23 CL   LIG    1       36.246  16.095 190.950  0.00  0.00    -0.083 Cl
ATOM     24  C   LIG    1       38.004  16.398 188.912  0.00  0.00    +0.020 A 
ATOM     25  C   LIG    1       38.503  17.048 187.790  0.00  0.00    +0.007 A 
ENDBRANCH  15  20
ENDBRANCH   1  15
TORSDOF 4
ENDMDL
MODEL 5
REMARK VINA RESULT:      -8.7     26.733     27.804
REMARK  Name = ZINC000049483826
REMARK                            x       y       z     vdW  Elec       q    Type
REMARK                         _______ _______ _______ _____ _____    ______ ____
ROOT
ATOM      1  N   LIG    1       25.166  43.281 184.104  0.00  0.00    -0.175 NA
ATOM      2  C   LIG    1       25.862  42.681 185.248  0.00  0.00    +0.123 C 
ATOM      3  C   LIG    1       24.457  42.304 185.783  0.00  0.00    +0.109 C 
ATOM      4  C   LIG    1       23.879  43.358 184.803  0.00  0.00    +0.123 C 
ENDROOT
BRANCH   3   5
ATOM      5  C   LIG    1       24.262  42.684 187.231  0.00  0.00    +0.233 A 
ATOM      6  O   LIG    1       25.217  42.427 188.099  0.00  0.00    -0.337 OA
ATOM      7  N   LIG    1       24.818  42.846 189.280  0.00  0.00    -0.056 NA
ATOM      8  C   LIG    1       23.643  43.343 189.088  0.00  0.00    +0.209 A 
ATOM      9  N   LIG    1       23.270  43.249 187.786  0.00  0.00    -0.191 NA
BRANCH   8  10
ATOM     10  C   LIG    1       22.821  43.929 190.138  0.00  0.00    +0.060 A 
ATOM     11  S   LIG    1       21.483  44.980 189.777  0.00  0.00    -0.093 S 
ATOM     12  C   LIG    1       21.126  45.178 191.454  0.00  0.00    +0.046 A 
ATOM     13  C   LIG    1       21.990  44.473 192.242  0.00  0.00    +0.008 A 
ATOM     14  C   LIG    1       22.948  43.767 191.500  0.00  0.00    +0.019 A 
ENDBRANCH   8  10
ENDBRANCH   3   5
BRANCH   1  15
ATOM     15  S   LIG    1       25.319  42.691 182.578  0.00  0.00    +0.061 S 
ATOM     16  O   LIG    1       26.498  43.226 181.993  0.00  0.00    -0.153 OA
ATOM     17  O   LIG    1       25.239  41.272 182.650  0.00  0.00    -0.153 OA
BRANCH  15  20
ATOM     18  C   LIG    1       24.635  45.749 181.908  0.00  0.00    +0.046 C 
ATOM     19  C   LIG    1       23.649  44.687 181.445  0.00  0.00    -0.024 A 
ATOM     20  C   LIG    1       23.864  43.316 181.691  0.00  0.00    +0.110 A 
ATOM     21  C   LIG    1       22.919  42.393 181.231  0.00  0.00    +0.048 A 
ATOM     22  C   LIG    1       21.783  42.816 180.546  0.00  0.00    +0.043 A 
ATOM     23 CL   LIG    1       20.624  41.654 179.994  0.00  0.00    -0.083 Cl
ATOM     24  C   LIG    1       21.575  44.171 180.307  0.00  0.00    +0.020 A 
ATOM     25  C   LIG    1       22.507  45.098 180.755  0.00  0.00    +0.007 A 
ENDBRANCH  15  20
ENDBRANCH   1  15
TORSDOF 4
ENDMDL
MODEL 6
REMARK VINA RESULT:      -8.2      2.782      3.421
REMARK  Name = ZINC000049483826
REMARK                            x       y       z     vdW  Elec       q    Type
REMARK                         _______ _______ _______ _____ _____    ______ ____
ROOT
ATOM      1  N   LIG    1       27.430  17.067 186.659  0.00  0.00    -0.175 NA
ATOM      2  C   LIG    1       27.653  15.931 187.559  0.00  0.00    +0.123 C 
ATOM      3  C   LIG    1       26.779  16.695 188.586  0.00  0.00    +0.109 C 
ATOM      4  C   LIG    1       27.030  17.972 187.742  0.00  0.00    +0.123 C 
ENDROOT
BRANCH   3   5
ATOM      5  C   LIG    1       27.413  16.766 189.954  0.00  0.00    +0.233 A 
ATOM      6  O   LIG    1       28.499  17.489 190.125  0.00  0.00    -0.337 OA
ATOM      7  N   LIG    1       28.858  17.394 191.387  0.00  0.00    -0.056 NA
ATOM      8  C   LIG    1       27.981  16.623 191.935  0.00  0.00    +0.209 A 
ATOM      9  N   LIG    1       27.050  16.211 191.037  0.00  0.00    -0.191 NA
BRANCH   8  10
ATOM     10  C   LIG    1       27.992  16.242 193.341  0.00  0.00    +0.060 A 
ATOM     11  S   LIG    1       26.523  15.936 194.220  0.00  0.00    -0.093 S 
ATOM     12  C   LIG    1       27.404  15.586 195.662  0.00  0.00    +0.046 A 
ATOM     13  C   LIG    1       28.752  15.699 195.472  0.00  0.00    +0.008 A 
ATOM     14  C   LIG    1       29.085  16.070 194.161  0.00  0.00    +0.019 A 
ENDBRANCH   8  10
ENDBRANCH   3   5
BRANCH   1  15
ATOM     15  S   LIG    1       26.584  16.923 185.258  0.00  0.00    +0.061 S 
ATOM     16  O   LIG    1       25.820  15.726 185.302  0.00  0.00    -0.153 OA
ATOM     17  O   LIG    1       25.854  18.130 185.065  0.00  0.00    -0.153 OA
BRANCH  15  20
ATOM     18  C   LIG    1       29.710  17.563 185.543  0.00  0.00    +0.046 C 
ATOM     19  C   LIG    1       29.206  17.097 184.186  0.00  0.00    -0.024 A 
ATOM     20  C   LIG    1       27.849  16.790 183.962  0.00  0.00    +0.110 A 
ATOM     21  C   LIG    1       27.455  16.361 182.691  0.00  0.00    +0.048 A 
ATOM     22  C   LIG    1       28.383  16.243 181.659  0.00  0.00    +0.043 A 
ATOM     23 CL   LIG    1       27.869  15.718 180.092  0.00  0.00    -0.083 Cl
ATOM     24  C   LIG    1       29.721  16.548 181.885  0.00  0.00    +0.020 A 
ATOM     25  C   LIG    1       30.127  16.972 183.143  0.00  0.00    +0.007 A 
ENDBRANCH  15  20
ENDBRANCH   1  15
TORSDOF 4
ENDMDL
MODEL 7
REMARK VINA RESULT:      -8.1      5.843      8.875
REMARK  Name = ZINC000049483826
REMARK                            x       y       z     vdW  Elec       q    Type
REMARK                         _______ _______ _______ _____ _____    ______ ____
ROOT
ATOM      1  N   LIG    1       35.203  19.649 185.939  0.00  0.00    -0.175 NA
ATOM      2  C   LIG    1       33.883  20.268 185.784  0.00  0.00    +0.123 C 
ATOM      3  C   LIG    1       33.295  18.880 186.145  0.00  0.00    +0.109 C 
ATOM      4  C   LIG    1       34.686  18.283 185.809  0.00  0.00    +0.123 C 
ENDROOT
BRANCH   3   5
ATOM      5  C   LIG    1       32.220  18.433 185.185  0.00  0.00    +0.233 A 
ATOM      6  O   LIG    1       32.515  18.284 183.911  0.00  0.00    -0.337 OA
ATOM      7  N   LIG    1       31.427  17.893 183.284  0.00  0.00    -0.056 NA
ATOM      8  C   LIG    1       30.516  17.817 184.194  0.00  0.00    +0.209 A 
ATOM      9  N   LIG    1       31.002  18.158 185.415  0.00  0.00    -0.191 NA
BRANCH   8  10
ATOM     10  C   LIG    1       29.138  17.415 183.941  0.00  0.00    +0.060 A 
ATOM     11  S   LIG    1       28.086  16.889 185.221  0.00  0.00    -0.093 S 
ATOM     12  C   LIG    1       26.786  16.640 184.113  0.00  0.00    +0.046 A 
ATOM     13  C   LIG    1       27.148  16.947 182.832  0.00  0.00    +0.008 A 
ATOM     14  C   LIG    1       28.476  17.385 182.734  0.00  0.00    +0.019 A 
ENDBRANCH   8  10
ENDBRANCH   3   5
BRANCH   1  15
ATOM     15  S   LIG    1       36.249  20.098 187.124  0.00  0.00    +0.061 S 
ATOM     16  O   LIG    1       36.924  21.281 186.720  0.00  0.00    -0.153 OA
ATOM     17  O   LIG    1       35.517  20.176 188.343  0.00  0.00    -0.153 OA
BRANCH  15  20
ATOM     18  C   LIG    1       36.132  17.610 189.140  0.00  0.00    +0.046 C 
ATOM     19  C   LIG    1       37.298  17.676 188.167  0.00  0.00    -0.024 A 
ATOM     20  C   LIG    1       37.436  18.729 187.241  0.00  0.00    +0.110 A 
ATOM     21  C   LIG    1       38.530  18.723 186.370  0.00  0.00    +0.048 A 
ATOM     22  C   LIG    1       39.473  17.699 186.417  0.00  0.00    +0.043 A 
ATOM     23 CL   LIG    1       40.823  17.719 185.334  0.00  0.00    -0.083 Cl
ATOM     24  C   LIG    1       39.333  16.662 187.333  0.00  0.00    +0.020 A 
ATOM     25  C   LIG    1       38.249  16.653 188.201  0.00  0.00    +0.007 A 
ENDBRANCH  15  20
ENDBRANCH   1  15
TORSDOF 4
ENDMDL
MODEL 8
REMARK VINA RESULT:      -8.0      5.651      8.505
REMARK  Name = ZINC000049483826
REMARK                            x       y       z     vdW  Elec       q    Type
REMARK                         _______ _______ _______ _____ _____    ______ ____
ROOT
ATOM      1  N   LIG    1       34.437  19.896 186.535  0.00  0.00    -0.175 NA
ATOM      2  C   LIG    1       33.923  18.550 186.808  0.00  0.00    +0.123 C 
ATOM      3  C   LIG    1       33.283  18.611 185.398  0.00  0.00    +0.109 C 
ATOM      4  C   LIG    1       33.477  20.148 185.455  0.00  0.00    +0.123 C 
ENDROOT
BRANCH   3   5
ATOM      5  C   LIG    1       31.828  18.206 185.400  0.00  0.00    +0.233 A 
ATOM      6  O   LIG    1       31.128  18.323 186.508  0.00  0.00    -0.337 OA
ATOM      7  N   LIG    1       29.903  17.912 186.260  0.00  0.00    -0.056 NA
ATOM      8  C   LIG    1       29.902  17.565 185.018  0.00  0.00    +0.209 A 
ATOM      9  N   LIG    1       31.122  17.745 184.450  0.00  0.00    -0.191 NA
BRANCH   8  10
ATOM     10  C   LIG    1       28.737  17.045 184.315  0.00  0.00    +0.060 A 
ATOM     11  S   LIG    1       28.879  15.832 183.076  0.00  0.00    -0.093 S 
ATOM     12  C   LIG    1       27.172  15.822 182.826  0.00  0.00    +0.046 A 
ATOM     13  C   LIG    1       26.534  16.703 183.652  0.00  0.00    +0.008 A 
ATOM     14  C   LIG    1       27.418  17.395 184.493  0.00  0.00    +0.019 A 
ENDBRANCH   8  10
ENDBRANCH   3   5
BRANCH   1  15
ATOM     15  S   LIG    1       36.044  20.209 186.392  0.00  0.00    +0.061 S 
ATOM     16  O   LIG    1       36.466  19.865 185.080  0.00  0.00    -0.153 OA
ATOM     17  O   LIG    1       36.261  21.557 186.792  0.00  0.00    -0.153 OA
BRANCH  15  20
ATOM     18  C   LIG    1       36.056  20.521 189.581  0.00  0.00    +0.046 C 
ATOM     19  C   LIG    1       36.791  19.330 188.986  0.00  0.00    -0.024 A 
ATOM     20  C   LIG    1       36.841  19.106 187.595  0.00  0.00    +0.110 A 
ATOM     21  C   LIG    1       37.529  17.987 187.117  0.00  0.00    +0.048 A 
ATOM     22  C   LIG    1       38.161  17.109 187.994  0.00  0.00    +0.043 A 
ATOM     23 CL   LIG    1       39.013  15.735 187.376  0.00  0.00    -0.083 Cl
ATOM     24  C   LIG    1       38.109  17.335 189.366  0.00  0.00    +0.020 A 
ATOM     25  C   LIG    1       37.426  18.440 189.855  0.00  0.00    +0.007 A 
ENDBRANCH  15  20
ENDBRANCH   1  15
TORSDOF 4
ENDMDL
MODEL 9
REMARK VINA RESULT:      -7.9     31.014     32.147
REMARK  Name = ZINC000049483826
REMARK                            x       y       z     vdW  Elec       q    Type
REMARK                         _______ _______ _______ _____ _____    ______ ____
ROOT
ATOM      1  N   LIG    1       20.729  46.966 183.639  0.00  0.00    -0.175 NA
ATOM      2  C   LIG    1       20.576  47.360 185.043  0.00  0.00    +0.123 C 
ATOM      3  C   LIG    1       22.041  46.893 185.235  0.00  0.00    +0.109 C 
ATOM      4  C   LIG    1       21.891  46.111 183.904  0.00  0.00    +0.123 C 
ENDROOT
BRANCH   3   5
ATOM      5  C   LIG    1       22.213  45.986 186.429  0.00  0.00    +0.233 A 
ATOM      6  O   LIG    1       22.715  44.782 186.257  0.00  0.00    -0.337 OA
ATOM      7  N   LIG    1       22.766  44.190 187.430  0.00  0.00    -0.056 NA
ATOM      8  C   LIG    1       22.297  45.050 188.269  0.00  0.00    +0.209 A 
ATOM      9  N   LIG    1       21.938  46.204 187.650  0.00  0.00    -0.191 NA
BRANCH   8  10
ATOM     10  C   LIG    1       22.169  44.812 189.700  0.00  0.00    +0.060 A 
ATOM     11  S   LIG    1       21.076  45.734 190.690  0.00  0.00    -0.093 S 
ATOM     12  C   LIG    1       21.542  44.858 192.102  0.00  0.00    +0.046 A 
ATOM     13  C   LIG    1       22.485  43.910 191.821  0.00  0.00    +0.008 A 
ATOM     14  C   LIG    1       22.840  43.884 190.465  0.00  0.00    +0.019 A 
ENDBRANCH   8  10
ENDBRANCH   3   5
BRANCH   1  15
ATOM     15  S   LIG    1       20.686  48.058 182.412  0.00  0.00    +0.061 S 
ATOM     16  O   LIG    1       21.905  47.985 181.687  0.00  0.00    -0.153 OA
ATOM     17  O   LIG    1       19.495  47.829 181.668  0.00  0.00    -0.153 OA
BRANCH  15  20
ATOM     18  C   LIG    1       18.036  49.810 182.831  0.00  0.00    +0.046 C 
ATOM     19  C   LIG    1       19.344  50.371 183.365  0.00  0.00    -0.024 A 
ATOM     20  C   LIG    1       20.562  49.674 183.231  0.00  0.00    +0.110 A 
ATOM     21  C   LIG    1       21.727  50.245 183.752  0.00  0.00    +0.048 A 
ATOM     22  C   LIG    1       21.691  51.484 184.388  0.00  0.00    +0.043 A 
ATOM     23 CL   LIG    1       23.149  52.174 185.017  0.00  0.00    -0.083 Cl
ATOM     24  C   LIG    1       20.487  52.168 184.518  0.00  0.00    +0.020 A 
ATOM     25  C   LIG    1       19.321  51.610 184.009  0.00  0.00    +0.007 A 
ENDBRANCH  15  20
ENDBRANCH   1  15
TORSDOF 4
ENDMDL
