REMARK VINA RESULT:      -9.7      0.000      0.000
REMARK  Name = ZINC000049421769
REMARK                            x       y       z     vdW  Elec       q    Type
REMARK                         _______ _______ _______ _____ _____    ______ ____
ROOT
ATOM      1  C   LIG    1       27.374  42.594 182.461  0.00  0.00    +0.088 C 
ATOM      2  C   LIG    1       26.119  43.437 182.529  0.00  0.00    +0.135 A 
ATOM      3  N   LIG    1       25.166  43.418 183.488  0.00  0.00    -0.276 N 
ATOM      4  C   LIG    1       24.993  42.661 184.702  0.00  0.00    +0.075 A 
ATOM      5  C   LIG    1       25.875  41.651 185.120  0.00  0.00    +0.028 A 
ATOM      6  C   LIG    1       25.635  40.988 186.314  0.00  0.00    +0.002 A 
ATOM      7  C   LIG    1       24.524  41.323 187.093  0.00  0.00    +0.002 A 
ATOM      8  C   LIG    1       23.649  42.314 186.675  0.00  0.00    +0.030 A 
ATOM      9  C   LIG    1       23.861  42.994 185.470  0.00  0.00    +0.089 A 
ATOM     10  N   LIG    1       22.942  43.965 185.080  0.00  0.00    -0.235 NA
ATOM     11  C   LIG    1       23.131  44.605 183.972  0.00  0.00    +0.143 A 
ATOM     12  C   LIG    1       24.266  44.348 183.123  0.00  0.00    +0.194 A 
ATOM     13  N   LIG    1       24.634  44.904 181.995  0.00  0.00    -0.127 NA
ATOM     14  N   LIG    1       25.802  44.321 181.634  0.00  0.00    -0.134 NA
ENDROOT
BRANCH  11  15
ATOM     15  S   LIG    1       21.978  45.825 183.503  0.00  0.00    -0.093 S 
BRANCH  15  16
ATOM     16  C   LIG    1       22.242  47.159 184.742  0.00  0.00    +0.172 C 
BRANCH  16  17
ATOM     17  C   LIG    1       20.880  47.783 184.980  0.00  0.00    +0.227 C 
ATOM     18  N   LIG    1       20.829  48.863 185.822  0.00  0.00    -0.284 N 
ATOM     19  H   LIG    1       21.697  49.101 186.319  0.00  0.00    +0.155 HD
ATOM     20  O   LIG    1       19.865  47.347 184.480  0.00  0.00    -0.275 OA
BRANCH  18  21
ATOM     21  C   LIG    1       19.651  49.538 186.218  0.00  0.00    +0.039 A 
ATOM     22  C   LIG    1       19.246  50.651 185.464  0.00  0.00    -0.029 A 
ATOM     23  C   LIG    1       20.059  51.161 184.285  0.00  0.00    +0.045 C 
ATOM     24  C   LIG    1       18.077  51.313 185.829  0.00  0.00    +0.005 A 
ATOM     25  C   LIG    1       17.327  50.877 186.918  0.00  0.00    +0.001 A 
ATOM     26  C   LIG    1       17.738  49.769 187.655  0.00  0.00    +0.005 A 
ATOM     27  C   LIG    1       18.900  49.082 187.313  0.00  0.00    -0.029 A 
ATOM     28  C   LIG    1       19.310  47.873 188.136  0.00  0.00    +0.045 C 
ENDBRANCH  18  21
ENDBRANCH  16  17
ENDBRANCH  15  16
ENDBRANCH  11  15
TORSDOF 4
