REMARK VINA RESULT:      -7.5      3.926      4.877
REMARK  Name = ZINC000009527204
REMARK                            x       y       z     vdW  Elec       q    Type
REMARK                         _______ _______ _______ _____ _____    ______ ____
ROOT
ATOM      1  O   LIG    1       27.844  43.184 182.092  0.00  0.00    -0.267 OA
ATOM      2  C   LIG    1       27.526  44.228 181.524  0.00  0.00    +0.282 C 
ATOM      3  N   LIG    1       26.187  44.356 181.168  0.00  0.00    -0.292 N 
ATOM      4  C   LIG    1       25.469  45.655 181.231  0.00  0.00    +0.127 C 
ATOM      5  C   LIG    1       24.719  45.687 182.587  0.00  0.00    +0.127 C 
ATOM      6  N   LIG    1       23.816  44.507 182.615  0.00  0.00    -0.294 N 
ATOM      7  C   LIG    1       22.521  44.598 182.116  0.00  0.00    +0.253 C 
ATOM      8  O   LIG    1       22.107  43.640 181.465  0.00  0.00    -0.269 OA
ATOM      9  C   LIG    1       24.545  43.210 182.555  0.00  0.00    +0.127 C 
ATOM     10  C   LIG    1       25.284  43.174 181.196  0.00  0.00    +0.127 C 
ENDROOT
BRANCH   7  11
ATOM     11  C   LIG    1       21.728  45.793 182.351  0.00  0.00    +0.075 A 
ATOM     12  S   LIG    1       21.546  46.446 183.949  0.00  0.00    -0.083 S 
ATOM     13  C   LIG    1       20.547  47.727 183.360  0.00  0.00    +0.024 A 
ATOM     14  C   LIG    1       19.914  48.754 184.149  0.00  0.00    -0.001 A 
ATOM     15  C   LIG    1       18.945  49.511 183.548  0.00  0.00    -0.002 A 
ATOM     16  C   LIG    1       18.446  49.274 182.130  0.00  0.00    +0.048 C 
ATOM     17  C   LIG    1       19.620  48.747 181.253  0.00  0.00    +0.041 C 
ATOM     18  S   LIG    1       18.294  50.699 184.620  0.00  0.00    -0.101 S 
ATOM     19  C   LIG    1       19.341  50.161 185.889  0.00  0.00    +0.046 A 
ATOM     20  C   LIG    1       20.137  49.127 185.491  0.00  0.00    +0.017 A 
ATOM     21  C   LIG    1       20.390  47.658 181.997  0.00  0.00    -0.032 A 
ATOM     22  C   LIG    1       21.056  46.570 181.427  0.00  0.00    +0.025 A 
ENDBRANCH   7  11
BRANCH   2  23
ATOM     23  C   LIG    1       28.508  45.280 181.255  0.00  0.00    +0.189 A 
ATOM     24  O   LIG    1       29.190  45.404 180.061  0.00  0.00    -0.458 OA
ATOM     25  C   LIG    1       30.027  46.457 180.170  0.00  0.00    +0.196 A 
ATOM     26  C   LIG    1       29.904  47.009 181.399  0.00  0.00    +0.042 A 
ATOM     27  C   LIG    1       28.947  46.265 182.090  0.00  0.00    +0.054 A 
ENDBRANCH   2  23
TORSDOF 2
