MODEL 1
REMARK VINA RESULT:      -8.5      0.000      0.000
REMARK  Name = ZINC000000538144
REMARK                            x       y       z     vdW  Elec       q    Type
REMARK                         _______ _______ _______ _____ _____    ______ ____
ROOT
ATOM      1  C   LIG    1       22.777  44.633 190.493  0.00  0.00    +0.163 A 
ATOM      2  C   LIG    1       22.043  45.071 189.345  0.00  0.00    +0.162 A 
ATOM      3  C   LIG    1       22.292  44.524 188.097  0.00  0.00    +0.059 A 
ATOM      4  C   LIG    1       23.270  43.522 187.964  0.00  0.00    +0.007 A 
ATOM      5  C   LIG    1       23.746  42.763 186.867  0.00  0.00    -0.018 A 
ATOM      6  C   LIG    1       24.707  41.916 187.324  0.00  0.00    +0.017 A 
ATOM      7  C   LIG    1       25.545  40.893 186.587  0.00  0.00    +0.063 C 
ATOM      8  N   LIG    1       24.856  42.133 188.680  0.00  0.00    -0.358 N 
ATOM      9  H   LIG    1       25.521  41.641 189.296  0.00  0.00    +0.166 HD
ATOM     10  C   LIG    1       23.972  43.113 189.091  0.00  0.00    +0.051 A 
ATOM     11  C   LIG    1       23.751  43.649 190.368  0.00  0.00    +0.075 A 
ENDROOT
BRANCH   1  13
ATOM     12  C   LIG    1       21.573  44.700 192.718  0.00  0.00    +0.277 C 
ATOM     13  O   LIG    1       22.521  45.192 191.744  0.00  0.00    -0.491 OA
ENDBRANCH   1  13
BRANCH   2  14
ATOM     14  O   LIG    1       21.045  46.048 189.369  0.00  0.00    -0.491 OA
ATOM     15  C   LIG    1       19.672  45.907 189.794  0.00  0.00    +0.277 C 
ENDBRANCH   2  14
BRANCH   5  16
ATOM     16  C   LIG    1       23.239  42.882 185.445  0.00  0.00    +0.053 C 
BRANCH  16  17
ATOM     17  C   LIG    1       24.355  43.608 184.677  0.00  0.00    +0.089 C 
BRANCH  17  18
ATOM     18  N   LIG    1       24.534  42.895 183.382  0.00  0.00    -0.299 NA
ATOM     19  C   LIG    1       25.919  42.354 183.163  0.00  0.00    +0.103 C 
ATOM     20  C   LIG    1       26.949  43.500 182.954  0.00  0.00    +0.120 C 
ATOM     21  N   LIG    1       26.501  44.326 181.804  0.00  0.00    -0.327 N 
ATOM     22  C   LIG    1       25.162  44.915 182.046  0.00  0.00    +0.120 C 
ATOM     23  C   LIG    1       24.153  43.747 182.215  0.00  0.00    +0.103 C 
BRANCH  21  24
ATOM     24  C   LIG    1       27.513  45.161 181.281  0.00  0.00    +0.030 A 
ATOM     25  C   LIG    1       27.662  45.378 179.904  0.00  0.00    +0.023 A 
ATOM     26  C   LIG    1       28.670  46.216 179.441  0.00  0.00    +0.002 A 
ATOM     27  C   LIG    1       29.534  46.839 180.339  0.00  0.00    +0.000 A 
ATOM     28  C   LIG    1       29.389  46.620 181.707  0.00  0.00    +0.002 A 
ATOM     29  C   LIG    1       28.386  45.782 182.178  0.00  0.00    +0.023 A 
ENDBRANCH  21  24
ENDBRANCH  17  18
ENDBRANCH  16  17
ENDBRANCH   5  16
TORSDOF 6
ENDMDL
MODEL 2
REMARK VINA RESULT:      -8.1      3.529      4.439
REMARK  Name = ZINC000000538144
REMARK                            x       y       z     vdW  Elec       q    Type
REMARK                         _______ _______ _______ _____ _____    ______ ____
ROOT
ATOM      1  C   LIG    1       22.831  44.616 190.305  0.00  0.00    +0.163 A 
ATOM      2  C   LIG    1       22.073  45.109 189.195  0.00  0.00    +0.162 A 
ATOM      3  C   LIG    1       22.303  44.632 187.915  0.00  0.00    +0.059 A 
ATOM      4  C   LIG    1       23.286  43.647 187.711  0.00  0.00    +0.007 A 
ATOM      5  C   LIG    1       23.748  42.951 186.567  0.00  0.00    -0.018 A 
ATOM      6  C   LIG    1       24.724  42.089 186.961  0.00  0.00    +0.017 A 
ATOM      7  C   LIG    1       25.555  41.114 186.155  0.00  0.00    +0.063 C 
ATOM      8  N   LIG    1       24.895  42.234 188.324  0.00  0.00    -0.358 N 
ATOM      9  H   LIG    1       25.575  41.716 188.901  0.00  0.00    +0.166 HD
ATOM     10  C   LIG    1       24.012  43.184 188.802  0.00  0.00    +0.051 A 
ATOM     11  C   LIG    1       23.810  43.649 190.110  0.00  0.00    +0.075 A 
ENDROOT
BRANCH   1  13
ATOM     12  C   LIG    1       21.636  44.580 192.535  0.00  0.00    +0.277 C 
ATOM     13  O   LIG    1       22.594  45.105 191.589  0.00  0.00    -0.491 OA
ENDBRANCH   1  13
BRANCH   2  14
ATOM     14  O   LIG    1       21.068  46.075 189.290  0.00  0.00    -0.491 OA
ATOM     15  C   LIG    1       19.704  45.898 189.726  0.00  0.00    +0.277 C 
ENDBRANCH   2  14
BRANCH   5  16
ATOM     16  C   LIG    1       23.214  43.142 185.163  0.00  0.00    +0.053 C 
BRANCH  16  17
ATOM     17  C   LIG    1       23.850  44.449 184.662  0.00  0.00    +0.089 C 
BRANCH  17  18
ATOM     18  N   LIG    1       23.117  44.851 183.430  0.00  0.00    -0.299 NA
ATOM     19  C   LIG    1       23.817  45.899 182.611  0.00  0.00    +0.103 C 
ATOM     20  C   LIG    1       23.838  47.271 183.342  0.00  0.00    +0.120 C 
ATOM     21  N   LIG    1       22.436  47.662 183.638  0.00  0.00    -0.327 N 
ATOM     22  C   LIG    1       21.763  46.662 184.502  0.00  0.00    +0.120 C 
ATOM     23  C   LIG    1       21.728  45.315 183.731  0.00  0.00    +0.103 C 
BRANCH  21  24
ATOM     24  C   LIG    1       22.287  49.029 183.960  0.00  0.00    +0.030 A 
ATOM     25  C   LIG    1       21.158  49.767 183.577  0.00  0.00    +0.023 A 
ATOM     26  C   LIG    1       21.058  51.109 183.926  0.00  0.00    +0.002 A 
ATOM     27  C   LIG    1       22.074  51.724 184.653  0.00  0.00    +0.000 A 
ATOM     28  C   LIG    1       23.198  50.993 185.030  0.00  0.00    +0.002 A 
ATOM     29  C   LIG    1       23.309  49.652 184.682  0.00  0.00    +0.023 A 
ENDBRANCH  21  24
ENDBRANCH  17  18
ENDBRANCH  16  17
ENDBRANCH   5  16
TORSDOF 6
ENDMDL
MODEL 3
REMARK VINA RESULT:      -7.4     23.503     26.017
REMARK  Name = ZINC000000538144
REMARK                            x       y       z     vdW  Elec       q    Type
REMARK                         _______ _______ _______ _____ _____    ______ ____
ROOT
ATOM      1  C   LIG    1       16.149  35.607 208.830  0.00  0.00    +0.163 A 
ATOM      2  C   LIG    1       16.555  35.591 210.202  0.00  0.00    +0.162 A 
ATOM      3  C   LIG    1       17.350  36.603 210.715  0.00  0.00    +0.059 A 
ATOM      4  C   LIG    1       17.750  37.659 209.877  0.00  0.00    +0.007 A 
ATOM      5  C   LIG    1       18.525  38.826 210.082  0.00  0.00    -0.018 A 
ATOM      6  C   LIG    1       18.582  39.508 208.906  0.00  0.00    +0.017 A 
ATOM      7  C   LIG    1       19.276  40.808 208.558  0.00  0.00    +0.063 C 
ATOM      8  N   LIG    1       17.871  38.791 207.964  0.00  0.00    -0.358 N 
ATOM      9  H   LIG    1       17.748  39.059 206.975  0.00  0.00    +0.166 HD
ATOM     10  C   LIG    1       17.346  37.654 208.548  0.00  0.00    +0.051 A 
ATOM     11  C   LIG    1       16.548  36.643 207.994  0.00  0.00    +0.075 A 
ENDROOT
BRANCH   1  13
ATOM     12  C   LIG    1       15.820  33.396 207.643  0.00  0.00    +0.277 C 
ATOM     13  O   LIG    1       15.351  34.582 208.323  0.00  0.00    -0.491 OA
ENDBRANCH   1  13
BRANCH   2  14
ATOM     14  O   LIG    1       16.204  34.598 211.120  0.00  0.00    -0.491 OA
ATOM     15  C   LIG    1       14.895  34.307 211.657  0.00  0.00    +0.277 C 
ENDBRANCH   2  14
BRANCH   5  16
ATOM     16  C   LIG    1       19.154  39.230 211.400  0.00  0.00    +0.053 C 
BRANCH  16  17
ATOM     17  C   LIG    1       20.641  38.864 211.268  0.00  0.00    +0.089 C 
BRANCH  17  18
ATOM     18  N   LIG    1       21.365  39.564 212.364  0.00  0.00    -0.299 NA
ATOM     19  C   LIG    1       21.168  41.054 212.381  0.00  0.00    +0.103 C 
ATOM     20  C   LIG    1       21.856  41.731 211.162  0.00  0.00    +0.120 C 
ATOM     21  N   LIG    1       23.297  41.375 211.185  0.00  0.00    -0.327 N 
ATOM     22  C   LIG    1       23.498  39.908 211.102  0.00  0.00    +0.120 C 
ATOM     23  C   LIG    1       22.830  39.267 212.347  0.00  0.00    +0.103 C 
BRANCH  21  24
ATOM     24  C   LIG    1       24.096  42.205 210.367  0.00  0.00    +0.030 A 
ATOM     25  C   LIG    1       25.360  42.658 210.773  0.00  0.00    +0.023 A 
ATOM     26  C   LIG    1       26.109  43.467 209.926  0.00  0.00    +0.002 A 
ATOM     27  C   LIG    1       25.610  43.831 208.678  0.00  0.00    +0.000 A 
ATOM     28  C   LIG    1       24.353  43.385 208.276  0.00  0.00    +0.002 A 
ATOM     29  C   LIG    1       23.596  42.579 209.117  0.00  0.00    +0.023 A 
ENDBRANCH  21  24
ENDBRANCH  17  18
ENDBRANCH  16  17
ENDBRANCH   5  16
TORSDOF 6
ENDMDL
MODEL 4
REMARK VINA RESULT:      -7.4     26.989     30.374
REMARK  Name = ZINC000000538144
REMARK                            x       y       z     vdW  Elec       q    Type
REMARK                         _______ _______ _______ _____ _____    ______ ____
ROOT
ATOM      1  C   LIG    1       24.619  15.626 196.068  0.00  0.00    +0.163 A 
ATOM      2  C   LIG    1       25.174  15.298 197.346  0.00  0.00    +0.162 A 
ATOM      3  C   LIG    1       26.542  15.155 197.506  0.00  0.00    +0.059 A 
ATOM      4  C   LIG    1       27.391  15.344 196.401  0.00  0.00    +0.007 A 
ATOM      5  C   LIG    1       28.796  15.291 196.231  0.00  0.00    -0.018 A 
ATOM      6  C   LIG    1       29.075  15.573 194.929  0.00  0.00    +0.017 A 
ATOM      7  C   LIG    1       30.401  15.648 194.203  0.00  0.00    +0.063 C 
ATOM      8  N   LIG    1       27.878  15.789 194.274  0.00  0.00    -0.358 N 
ATOM      9  H   LIG    1       27.774  16.014 193.273  0.00  0.00    +0.166 HD
ATOM     10  C   LIG    1       26.832  15.660 195.169  0.00  0.00    +0.051 A 
ATOM     11  C   LIG    1       25.452  15.806 194.969  0.00  0.00    +0.075 A 
ENDROOT
BRANCH   1  13
ATOM     12  C   LIG    1       22.351  14.808 195.299  0.00  0.00    +0.277 C 
ATOM     13  O   LIG    1       23.241  15.766 195.916  0.00  0.00    -0.491 OA
ENDBRANCH   1  13
BRANCH   2  14
ATOM     14  O   LIG    1       24.422  15.102 198.507  0.00  0.00    -0.491 OA
ATOM     15  C   LIG    1       24.845  14.495 199.748  0.00  0.00    +0.277 C 
ENDBRANCH   2  14
BRANCH   5  16
ATOM     16  C   LIG    1       29.792  14.990 197.330  0.00  0.00    +0.053 C 
BRANCH  16  17
ATOM     17  C   LIG    1       30.529  16.315 197.583  0.00  0.00    +0.089 C 
BRANCH  17  18
ATOM     18  N   LIG    1       30.538  16.541 199.054  0.00  0.00    -0.299 NA
ATOM     19  C   LIG    1       29.172  16.586 199.679  0.00  0.00    +0.103 C 
ATOM     20  C   LIG    1       28.390  17.857 199.242  0.00  0.00    +0.120 C 
ATOM     21  N   LIG    1       29.195  19.049 199.611  0.00  0.00    -0.327 N 
ATOM     22  C   LIG    1       30.519  19.041 198.944  0.00  0.00    +0.120 C 
ATOM     23  C   LIG    1       31.286  17.780 199.427  0.00  0.00    +0.103 C 
BRANCH  21  24
ATOM     24  C   LIG    1       28.454  20.252 199.610  0.00  0.00    +0.030 A 
ATOM     25  C   LIG    1       29.068  21.505 199.746  0.00  0.00    +0.023 A 
ATOM     26  C   LIG    1       28.294  22.660 199.731  0.00  0.00    +0.002 A 
ATOM     27  C   LIG    1       26.911  22.577 199.582  0.00  0.00    +0.000 A 
ATOM     28  C   LIG    1       26.300  21.332 199.451  0.00  0.00    +0.002 A 
ATOM     29  C   LIG    1       27.066  20.173 199.469  0.00  0.00    +0.023 A 
ENDBRANCH  21  24
ENDBRANCH  17  18
ENDBRANCH  16  17
ENDBRANCH   5  16
TORSDOF 6
ENDMDL
MODEL 5
REMARK VINA RESULT:      -7.2     23.327     25.931
REMARK  Name = ZINC000000538144
REMARK                            x       y       z     vdW  Elec       q    Type
REMARK                         _______ _______ _______ _____ _____    ______ ____
ROOT
ATOM      1  C   LIG    1       16.182  34.816 209.405  0.00  0.00    +0.163 A 
ATOM      2  C   LIG    1       16.753  35.693 208.429  0.00  0.00    +0.162 A 
ATOM      3  C   LIG    1       17.276  36.920 208.803  0.00  0.00    +0.059 A 
ATOM      4  C   LIG    1       17.251  37.298 210.157  0.00  0.00    +0.007 A 
ATOM      5  C   LIG    1       17.703  38.442 210.859  0.00  0.00    -0.018 A 
ATOM      6  C   LIG    1       17.425  38.267 212.179  0.00  0.00    +0.017 A 
ATOM      7  C   LIG    1       17.684  39.171 213.365  0.00  0.00    +0.063 C 
ATOM      8  N   LIG    1       16.796  37.045 212.322  0.00  0.00    -0.358 N 
ATOM      9  H   LIG    1       16.459  36.646 213.211  0.00  0.00    +0.166 HD
ATOM     10  C   LIG    1       16.689  36.433 211.088  0.00  0.00    +0.051 A 
ATOM     11  C   LIG    1       16.145  35.187 210.744  0.00  0.00    +0.075 A 
ENDROOT
BRANCH   1  13
ATOM     12  C   LIG    1       14.346  33.358 208.451  0.00  0.00    +0.277 C 
ATOM     13  O   LIG    1       15.656  33.584 209.019  0.00  0.00    -0.491 OA
ENDBRANCH   1  13
BRANCH   2  14
ATOM     14  O   LIG    1       16.840  35.409 207.064  0.00  0.00    -0.491 OA
ATOM     15  C   LIG    1       17.712  34.465 206.406  0.00  0.00    +0.277 C 
ENDBRANCH   2  14
BRANCH   5  16
ATOM     16  C   LIG    1       18.393  39.632 210.224  0.00  0.00    +0.053 C 
BRANCH  16  17
ATOM     17  C   LIG    1       19.859  39.203 210.046  0.00  0.00    +0.089 C 
BRANCH  17  18
ATOM     18  N   LIG    1       20.622  39.756 211.198  0.00  0.00    -0.299 NA
ATOM     19  C   LIG    1       20.328  41.198 211.498  0.00  0.00    +0.103 C 
ATOM     20  C   LIG    1       20.868  42.132 210.378  0.00  0.00    +0.120 C 
ATOM     21  N   LIG    1       22.327  41.894 210.236  0.00  0.00    -0.327 N 
ATOM     22  C   LIG    1       22.617  40.486 209.875  0.00  0.00    +0.120 C 
ATOM     23  C   LIG    1       22.097  39.584 211.027  0.00  0.00    +0.103 C 
BRANCH  21  24
ATOM     24  C   LIG    1       22.999  42.916 209.530  0.00  0.00    +0.030 A 
ATOM     25  C   LIG    1       24.158  42.667 208.781  0.00  0.00    +0.023 A 
ATOM     26  C   LIG    1       24.777  43.707 208.097  0.00  0.00    +0.002 A 
ATOM     27  C   LIG    1       24.251  44.996 208.154  0.00  0.00    +0.000 A 
ATOM     28  C   LIG    1       23.103  45.246 208.901  0.00  0.00    +0.002 A 
ATOM     29  C   LIG    1       22.479  44.212 209.591  0.00  0.00    +0.023 A 
ENDBRANCH  21  24
ENDBRANCH  17  18
ENDBRANCH  16  17
ENDBRANCH   5  16
TORSDOF 6
ENDMDL
MODEL 6
REMARK VINA RESULT:      -7.1      4.926      9.330
REMARK  Name = ZINC000000538144
REMARK                            x       y       z     vdW  Elec       q    Type
REMARK                         _______ _______ _______ _____ _____    ______ ____
ROOT
ATOM      1  C   LIG    1       25.797  42.656 181.651  0.00  0.00    +0.163 A 
ATOM      2  C   LIG    1       25.232  43.101 182.889  0.00  0.00    +0.162 A 
ATOM      3  C   LIG    1       24.935  44.439 183.088  0.00  0.00    +0.059 A 
ATOM      4  C   LIG    1       25.183  45.364 182.057  0.00  0.00    +0.007 A 
ATOM      5  C   LIG    1       24.985  46.760 181.931  0.00  0.00    -0.018 A 
ATOM      6  C   LIG    1       25.402  47.136 180.691  0.00  0.00    +0.017 A 
ATOM      7  C   LIG    1       25.422  48.499 180.035  0.00  0.00    +0.063 C 
ATOM      8  N   LIG    1       25.869  46.011 180.040  0.00  0.00    -0.358 N 
ATOM      9  H   LIG    1       26.258  45.990 179.085  0.00  0.00    +0.166 HD
ATOM     10  C   LIG    1       25.734  44.910 180.865  0.00  0.00    +0.051 A 
ATOM     11  C   LIG    1       26.053  43.565 180.631  0.00  0.00    +0.075 A 
ENDROOT
BRANCH   1  13
ATOM     12  C   LIG    1       25.155  40.270 181.101  0.00  0.00    +0.277 C 
ATOM     13  O   LIG    1       26.095  41.307 181.461  0.00  0.00    -0.491 OA
ENDBRANCH   1  13
BRANCH   2  14
ATOM     14  O   LIG    1       24.936  42.267 183.969  0.00  0.00    -0.491 OA
ATOM     15  C   LIG    1       25.840  41.757 184.973  0.00  0.00    +0.277 C 
ENDBRANCH   2  14
BRANCH   5  16
ATOM     16  C   LIG    1       24.391  47.652 183.001  0.00  0.00    +0.053 C 
BRANCH  16  17
ATOM     17  C   LIG    1       22.869  47.536 182.827  0.00  0.00    +0.089 C 
BRANCH  17  18
ATOM     18  N   LIG    1       22.364  48.884 182.448  0.00  0.00    -0.299 NA
ATOM     19  C   LIG    1       22.595  49.943 183.489  0.00  0.00    +0.103 C 
ATOM     20  C   LIG    1       21.718  49.700 184.750  0.00  0.00    +0.120 C 
ATOM     21  N   LIG    1       20.296  49.657 184.327  0.00  0.00    -0.327 N 
ATOM     22  C   LIG    1       20.051  48.569 183.349  0.00  0.00    +0.120 C 
ATOM     23  C   LIG    1       20.913  48.859 182.091  0.00  0.00    +0.103 C 
BRANCH  21  24
ATOM     24  C   LIG    1       19.384  49.811 185.395  0.00  0.00    +0.030 A 
ATOM     25  C   LIG    1       18.686  51.007 185.612  0.00  0.00    +0.023 A 
ATOM     26  C   LIG    1       17.794  51.104 186.674  0.00  0.00    +0.002 A 
ATOM     27  C   LIG    1       17.592  50.019 187.524  0.00  0.00    +0.000 A 
ATOM     28  C   LIG    1       18.288  48.832 187.311  0.00  0.00    +0.002 A 
ATOM     29  C   LIG    1       19.185  48.727 186.254  0.00  0.00    +0.023 A 
ENDBRANCH  21  24
ENDBRANCH  17  18
ENDBRANCH  16  17
ENDBRANCH   5  16
TORSDOF 6
ENDMDL
MODEL 7
REMARK VINA RESULT:      -7.1     23.273     25.749
REMARK  Name = ZINC000000538144
REMARK                            x       y       z     vdW  Elec       q    Type
REMARK                         _______ _______ _______ _____ _____    ______ ____
ROOT
ATOM      1  C   LIG    1       28.541  44.183 211.715  0.00  0.00    +0.163 A 
ATOM      2  C   LIG    1       27.921  42.927 211.419  0.00  0.00    +0.162 A 
ATOM      3  C   LIG    1       26.858  42.856 210.534  0.00  0.00    +0.059 A 
ATOM      4  C   LIG    1       26.394  44.030 209.915  0.00  0.00    +0.007 A 
ATOM      5  C   LIG    1       25.370  44.298 208.974  0.00  0.00    -0.018 A 
ATOM      6  C   LIG    1       25.372  45.634 208.715  0.00  0.00    +0.017 A 
ATOM      7  C   LIG    1       24.492  46.456 207.799  0.00  0.00    +0.063 C 
ATOM      8  N   LIG    1       26.365  46.214 209.479  0.00  0.00    -0.358 N 
ATOM      9  H   LIG    1       26.596  47.219 209.499  0.00  0.00    +0.166 HD
ATOM     10  C   LIG    1       27.009  45.239 210.218  0.00  0.00    +0.051 A 
ATOM     11  C   LIG    1       28.083  45.349 211.114  0.00  0.00    +0.075 A 
ENDROOT
BRANCH   1  13
ATOM     12  C   LIG    1       30.673  45.222 212.599  0.00  0.00    +0.277 C 
ATOM     13  O   LIG    1       29.608  44.244 212.610  0.00  0.00    -0.491 OA
ENDBRANCH   1  13
BRANCH   2  14
ATOM     14  O   LIG    1       28.311  41.703 211.968  0.00  0.00    -0.491 OA
ATOM     15  C   LIG    1       27.475  40.692 212.572  0.00  0.00    +0.277 C 
ENDBRANCH   2  14
BRANCH   5  16
ATOM     16  C   LIG    1       24.458  43.254 208.365  0.00  0.00    +0.053 C 
BRANCH  16  17
ATOM     17  C   LIG    1       23.134  43.372 209.136  0.00  0.00    +0.089 C 
BRANCH  17  18
ATOM     18  N   LIG    1       23.190  42.397 210.260  0.00  0.00    -0.299 NA
ATOM     19  C   LIG    1       23.356  40.968 209.828  0.00  0.00    +0.103 C 
ATOM     20  C   LIG    1       22.081  40.440 209.111  0.00  0.00    +0.120 C 
ATOM     21  N   LIG    1       20.928  40.597 210.035  0.00  0.00    -0.327 N 
ATOM     22  C   LIG    1       20.722  42.017 210.411  0.00  0.00    +0.120 C 
ATOM     23  C   LIG    1       21.996  42.502 211.153  0.00  0.00    +0.103 C 
BRANCH  21  24
ATOM     24  C   LIG    1       19.799  39.834 209.664  0.00  0.00    +0.030 A 
ATOM     25  C   LIG    1       19.248  38.861 210.509  0.00  0.00    +0.023 A 
ATOM     26  C   LIG    1       18.130  38.142 210.098  0.00  0.00    +0.002 A 
ATOM     27  C   LIG    1       17.558  38.384 208.851  0.00  0.00    +0.000 A 
ATOM     28  C   LIG    1       18.108  39.348 208.010  0.00  0.00    +0.002 A 
ATOM     29  C   LIG    1       19.227  40.068 208.411  0.00  0.00    +0.023 A 
ENDBRANCH  21  24
ENDBRANCH  17  18
ENDBRANCH  16  17
ENDBRANCH   5  16
TORSDOF 6
ENDMDL
MODEL 8
REMARK VINA RESULT:      -7.0     25.599     28.368
REMARK  Name = ZINC000000538144
REMARK                            x       y       z     vdW  Elec       q    Type
REMARK                         _______ _______ _______ _____ _____    ______ ____
ROOT
ATOM      1  C   LIG    1       36.897  20.678 187.539  0.00  0.00    +0.163 A 
ATOM      2  C   LIG    1       38.263  20.995 187.827  0.00  0.00    +0.162 A 
ATOM      3  C   LIG    1       38.893  20.461 188.939  0.00  0.00    +0.059 A 
ATOM      4  C   LIG    1       38.182  19.591 189.785  0.00  0.00    +0.007 A 
ATOM      5  C   LIG    1       38.523  18.879 190.960  0.00  0.00    -0.018 A 
ATOM      6  C   LIG    1       37.430  18.171 191.358  0.00  0.00    +0.017 A 
ATOM      7  C   LIG    1       37.236  17.251 192.544  0.00  0.00    +0.063 C 
ATOM      8  N   LIG    1       36.407  18.432 190.467  0.00  0.00    -0.358 N 
ATOM      9  H   LIG    1       35.454  18.042 190.520  0.00  0.00    +0.166 HD
ATOM     10  C   LIG    1       36.856  19.298 189.488  0.00  0.00    +0.051 A 
ATOM     11  C   LIG    1       36.185  19.825 188.375  0.00  0.00    +0.075 A 
ENDROOT
BRANCH   1  13
ATOM     12  C   LIG    1       34.862  21.139 186.106  0.00  0.00    +0.277 C 
ATOM     13  O   LIG    1       36.271  21.222 186.419  0.00  0.00    -0.491 OA
ENDBRANCH   1  13
BRANCH   2  14
ATOM     14  O   LIG    1       39.061  21.836 187.047  0.00  0.00    -0.491 OA
ATOM     15  C   LIG    1       40.310  21.522 186.395  0.00  0.00    +0.277 C 
ENDBRANCH   2  14
BRANCH   5  16
ATOM     16  C   LIG    1       39.883  18.904 191.626  0.00  0.00    +0.053 C 
BRANCH  16  17
ATOM     17  C   LIG    1       39.824  20.072 192.623  0.00  0.00    +0.089 C 
BRANCH  17  18
ATOM     18  N   LIG    1       40.868  21.053 192.215  0.00  0.00    -0.299 NA
ATOM     19  C   LIG    1       41.876  21.362 193.285  0.00  0.00    +0.103 C 
ATOM     20  C   LIG    1       41.234  22.161 194.455  0.00  0.00    +0.120 C 
ATOM     21  N   LIG    1       40.637  23.402 193.898  0.00  0.00    -0.327 N 
ATOM     22  C   LIG    1       39.594  23.099 192.888  0.00  0.00    +0.120 C 
ATOM     23  C   LIG    1       40.273  22.332 191.721  0.00  0.00    +0.103 C 
BRANCH  21  24
ATOM     24  C   LIG    1       40.354  24.380 194.877  0.00  0.00    +0.030 A 
ATOM     25  C   LIG    1       39.550  25.496 194.605  0.00  0.00    +0.023 A 
ATOM     26  C   LIG    1       39.295  26.426 195.607  0.00  0.00    +0.002 A 
ATOM     27  C   LIG    1       39.836  26.254 196.879  0.00  0.00    +0.000 A 
ATOM     28  C   LIG    1       40.639  25.148 197.149  0.00  0.00    +0.002 A 
ATOM     29  C   LIG    1       40.901  24.215 196.152  0.00  0.00    +0.023 A 
ENDBRANCH  21  24
ENDBRANCH  17  18
ENDBRANCH  16  17
ENDBRANCH   5  16
TORSDOF 6
ENDMDL
MODEL 9
REMARK VINA RESULT:      -6.9     24.247     26.928
REMARK  Name = ZINC000000538144
REMARK                            x       y       z     vdW  Elec       q    Type
REMARK                         _______ _______ _______ _____ _____    ______ ____
ROOT
ATOM      1  C   LIG    1       15.500  33.975 209.612  0.00  0.00    +0.163 A 
ATOM      2  C   LIG    1       15.969  35.118 208.889  0.00  0.00    +0.162 A 
ATOM      3  C   LIG    1       16.243  36.306 209.547  0.00  0.00    +0.059 A 
ATOM      4  C   LIG    1       16.064  36.381 210.940  0.00  0.00    +0.007 A 
ATOM      5  C   LIG    1       16.263  37.409 211.894  0.00  0.00    -0.018 A 
ATOM      6  C   LIG    1       15.935  36.917 213.120  0.00  0.00    +0.017 A 
ATOM      7  C   LIG    1       15.955  37.580 214.480  0.00  0.00    +0.063 C 
ATOM      8  N   LIG    1       15.525  35.608 212.957  0.00  0.00    -0.358 N 
ATOM      9  H   LIG    1       15.207  34.982 213.712  0.00  0.00    +0.166 HD
ATOM     10  C   LIG    1       15.606  35.261 211.622  0.00  0.00    +0.051 A 
ATOM     11  C   LIG    1       15.314  34.045 210.988  0.00  0.00    +0.075 A 
ENDROOT
BRANCH   1  13
ATOM     12  C   LIG    1       14.392  31.707 209.425  0.00  0.00    +0.277 C 
ATOM     13  O   LIG    1       15.225  32.784 208.941  0.00  0.00    -0.491 OA
ENDBRANCH   1  13
BRANCH   2  14
ATOM     14  O   LIG    1       16.191  35.145 207.510  0.00  0.00    -0.491 OA
ATOM     15  C   LIG    1       17.390  34.775 206.795  0.00  0.00    +0.277 C 
ENDBRANCH   2  14
BRANCH   5  16
ATOM     16  C   LIG    1       16.771  38.800 211.578  0.00  0.00    +0.053 C 
BRANCH  16  17
ATOM     17  C   LIG    1       18.202  38.845 212.136  0.00  0.00    +0.089 C 
BRANCH  17  18
ATOM     18  N   LIG    1       19.093  38.228 211.116  0.00  0.00    -0.299 NA
ATOM     19  C   LIG    1       20.549  38.231 211.486  0.00  0.00    +0.103 C 
ATOM     20  C   LIG    1       21.134  39.672 211.481  0.00  0.00    +0.120 C 
ATOM     21  N   LIG    1       20.916  40.257 210.134  0.00  0.00    -0.327 N 
ATOM     22  C   LIG    1       19.475  40.317 209.792  0.00  0.00    +0.120 C 
ATOM     23  C   LIG    1       18.931  38.863 209.772  0.00  0.00    +0.103 C 
BRANCH  21  24
ATOM     24  C   LIG    1       21.710  41.398 209.879  0.00  0.00    +0.030 A 
ATOM     25  C   LIG    1       22.981  41.305 209.293  0.00  0.00    +0.023 A 
ATOM     26  C   LIG    1       23.719  42.460 209.056  0.00  0.00    +0.002 A 
ATOM     27  C   LIG    1       23.202  43.707 209.400  0.00  0.00    +0.000 A 
ATOM     28  C   LIG    1       21.941  43.799 209.986  0.00  0.00    +0.002 A 
ATOM     29  C   LIG    1       21.198  42.650 210.229  0.00  0.00    +0.023 A 
ENDBRANCH  21  24
ENDBRANCH  17  18
ENDBRANCH  16  17
ENDBRANCH   5  16
TORSDOF 6
ENDMDL
