REMARK VINA RESULT:      -6.3      4.718      6.552
REMARK  Name = ZINC000000623134
REMARK                            x       y       z     vdW  Elec       q    Type
REMARK                         _______ _______ _______ _____ _____    ______ ____
ROOT
ATOM      1  N   LIG    1       21.471  47.628 184.384  0.00  0.00    -0.299 N 
ATOM      2  H   LIG    1       21.597  47.588 183.367  0.00  0.00    +0.150 HD
ENDROOT
BRANCH   1   5
ATOM      3  C   LIG    1       19.514  49.462 185.784  0.00  0.00    +0.409 C 
ATOM      4  N   LIG    1       20.382  49.646 184.747  0.00  0.00    -0.212 N 
ATOM      5  C   LIG    1       21.678  48.979 184.820  0.00  0.00    +0.235 C 
ATOM      6  S   LIG    1       22.677  49.684 183.444  0.00  0.00    -0.086 S 
ATOM      7  C   LIG    1       21.299  50.558 182.857  0.00  0.00    +0.006 C 
ATOM      8  C   LIG    1       21.130  51.449 181.667  0.00  0.00    +0.044 C 
ATOM      9  C   LIG    1       19.569  51.575 181.648  0.00  0.00    +0.011 C 
ATOM     10  C   LIG    1       19.042  51.251 183.085  0.00  0.00    +0.052 C 
ATOM     11  C   LIG    1       20.207  50.461 183.594  0.00  0.00    +0.029 C 
ATOM     12  O   LIG    1       19.800  48.776 186.764  0.00  0.00    -0.226 OA
BRANCH   3  13
ATOM     13  O   LIG    1       18.325  50.088 185.685  0.00  0.00    -0.450 OA
BRANCH  13  15
ATOM     14  C   LIG    1       16.981  50.456 187.578  0.00  0.00    +0.048 C 
ATOM     15  C   LIG    1       17.965  51.125 186.620  0.00  0.00    +0.230 C 
ENDBRANCH  13  15
ENDBRANCH   3  13
ENDBRANCH   1   5
BRANCH   1  16
ATOM     16  C   LIG    1       22.187  46.654 185.020  0.00  0.00    +0.136 C 
ATOM     17  S   LIG    1       22.729  45.289 184.214  0.00  0.00    -0.018 S 
BRANCH  16  18
ATOM     18  N   LIG    1       22.335  46.922 186.372  0.00  0.00    -0.297 N 
ATOM     19  H   LIG    1       22.339  47.930 186.617  0.00  0.00    +0.154 HD
BRANCH  18  20
ATOM     20  C   LIG    1       22.180  46.008 187.432  0.00  0.00    +0.033 A 
ATOM     21  C   LIG    1       21.213  46.297 188.396  0.00  0.00    +0.027 A 
ATOM     22  C   LIG    1       21.039  45.437 189.476  0.00  0.00    +0.047 A 
ATOM     23  C   LIG    1       21.840  44.297 189.583  0.00  0.00    +0.120 A 
ATOM     24  C   LIG    1       22.812  44.014 188.625  0.00  0.00    +0.047 A 
ATOM     25  C   LIG    1       22.988  44.872 187.546  0.00  0.00    +0.027 A 
BRANCH  23  26
ATOM     26  O   LIG    1       21.713  43.407 190.632  0.00  0.00    -0.495 OA
ATOM     27  C   LIG    1       22.085  43.686 192.000  0.00  0.00    +0.277 C 
ENDBRANCH  23  26
ENDBRANCH  18  20
ENDBRANCH  16  18
ENDBRANCH   1  16
TORSDOF 7
