REMARK VINA RESULT:      -8.6     29.140     30.681
REMARK  Name = ZINC000006086009
REMARK                            x       y       z     vdW  Elec       q    Type
REMARK                         _______ _______ _______ _____ _____    ______ ____
ROOT
ATOM      1  N   LIG    1       34.224  19.384 186.419  0.00  0.00    -0.286 NA
ATOM      2  C   LIG    1       34.384  20.678 185.709  0.00  0.00    +0.106 C 
ENDROOT
BRANCH   1   3
ATOM      3  C   LIG    1       35.579  18.797 186.787  0.00  0.00    +0.140 C 
ATOM      4  C   LIG    1       36.603  19.448 185.834  0.00  0.00    +0.034 C 
BRANCH   3   7
ATOM      5  N   LIG    1       36.381  20.390 188.498  0.00  0.00    -0.281 N 
ATOM      6  H   LIG    1       36.370  21.032 187.695  0.00  0.00    +0.155 HD
ATOM      7  C   LIG    1       36.011  19.093 188.245  0.00  0.00    +0.234 C 
ATOM      8  O   LIG    1       36.104  18.246 189.116  0.00  0.00    -0.274 OA
BRANCH   5  10
ATOM      9  C   LIG    1       38.411  21.065 189.587  0.00  0.00    +0.141 A 
ATOM     10  C   LIG    1       37.020  20.913 189.650  0.00  0.00    +0.076 A 
ATOM     11  C   LIG    1       36.323  21.280 190.802  0.00  0.00    +0.027 A 
ATOM     12  C   LIG    1       37.025  21.784 191.895  0.00  0.00    +0.002 A 
ATOM     13  C   LIG    1       38.411  21.927 191.838  0.00  0.00    +0.004 A 
ATOM     14  C   LIG    1       39.109  21.571 190.684  0.00  0.00    +0.047 A 
BRANCH   9  16
ATOM     15  C   LIG    1       39.778  19.447 188.229  0.00  0.00    +0.277 C 
ATOM     16  O   LIG    1       39.062  20.692 188.409  0.00  0.00    -0.493 OA
ENDBRANCH   9  16
ENDBRANCH   5  10
ENDBRANCH   3   7
ENDBRANCH   1   3
BRANCH   1  17
ATOM     17  C   LIG    1       33.342  18.442 185.594  0.00  0.00    +0.181 C 
BRANCH  17  18
ATOM     18  C   LIG    1       31.878  18.622 185.979  0.00  0.00    +0.231 C 
ATOM     19  N   LIG    1       31.059  17.582 185.622  0.00  0.00    -0.284 N 
ATOM     20  H   LIG    1       31.584  16.798 185.206  0.00  0.00    +0.155 HD
ATOM     21  O   LIG    1       31.459  19.618 186.533  0.00  0.00    -0.274 OA
BRANCH  19  22
ATOM     22  C   LIG    1       29.654  17.434 185.724  0.00  0.00    +0.041 A 
ATOM     23  C   LIG    1       28.926  17.214 184.512  0.00  0.00    +0.003 A 
ATOM     24  C   LIG    1       29.533  17.193 183.224  0.00  0.00    +0.010 A 
ATOM     25  C   LIG    1       28.785  16.967 182.092  0.00  0.00    +0.001 A 
ATOM     26  C   LIG    1       27.396  16.755 182.190  0.00  0.00    +0.001 A 
ATOM     27  C   LIG    1       26.778  16.780 183.417  0.00  0.00    +0.008 A 
ATOM     28  C   LIG    1       27.524  17.015 184.601  0.00  0.00    -0.016 A 
ATOM     29  C   LIG    1       26.889  17.059 185.869  0.00  0.00    +0.008 A 
ATOM     30  C   LIG    1       27.617  17.282 187.014  0.00  0.00    +0.002 A 
ATOM     31  C   LIG    1       29.009  17.467 186.947  0.00  0.00    +0.024 A 
ENDBRANCH  19  22
ENDBRANCH  17  18
ENDBRANCH   1  17
TORSDOF 7
