REMARK VINA RESULT:      -6.4     26.158     28.182
REMARK  Name = ZINC000006082796
REMARK                            x       y       z     vdW  Elec       q    Type
REMARK                         _______ _______ _______ _____ _____    ______ ____
ROOT
ATOM      1  N   LIG    1       36.381  19.061 187.249  0.00  0.00    -0.306 N 
ENDROOT
BRANCH   1   2
ATOM      2  C   LIG    1       36.767  18.051 188.116  0.00  0.00    +0.133 A 
ATOM      3  C   LIG    1       37.032  18.274 189.489  0.00  0.00    +0.051 A 
ATOM      4  C   LIG    1       36.945  19.431 190.323  0.00  0.00    -0.025 A 
ATOM      5  C   LIG    1       36.474  20.803 189.872  0.00  0.00    +0.037 C 
ATOM      6  C   LIG    1       36.169  21.656 191.116  0.00  0.00    +0.005 C 
ATOM      7  C   LIG    1       37.304  21.572 192.150  0.00  0.00    +0.005 C 
ATOM      8  C   LIG    1       37.387  20.160 192.754  0.00  0.00    +0.043 C 
ATOM      9  C   LIG    1       37.350  19.179 191.602  0.00  0.00    -0.004 A 
ATOM     10  S   LIG    1       37.813  17.526 191.846  0.00  0.00    -0.073 S 
ATOM     11  C   LIG    1       37.464  17.161 190.192  0.00  0.00    +0.114 A 
ATOM     12  N   LIG    1       37.582  15.931 189.638  0.00  0.00    -0.228 NA
ATOM     13  C   LIG    1       37.277  15.821 188.368  0.00  0.00    +0.224 A 
ATOM     14  N   LIG    1       36.869  16.847 187.586  0.00  0.00    -0.220 NA
ENDBRANCH   1   2
BRANCH   1  16
ATOM     15  C   LIG    1       37.608  19.494 185.240  0.00  0.00    +0.024 C 
ATOM     16  C   LIG    1       37.501  19.873 186.719  0.00  0.00    +0.104 C 
ENDBRANCH   1  16
BRANCH   1  17
ATOM     17  C   LIG    1       35.480  18.541 186.155  0.00  0.00    +0.202 C 
BRANCH  17  18
ATOM     18  C   LIG    1       34.035  19.012 186.357  0.00  0.00    +0.231 C 
ATOM     19  N   LIG    1       33.068  18.232 185.880  0.00  0.00    -0.309 N 
ATOM     20  H   LIG    1       33.358  17.327 185.541  0.00  0.00    +0.149 HD
ATOM     21  O   LIG    1       33.759  20.055 186.942  0.00  0.00    -0.274 OA
BRANCH  19  22
ATOM     22  C   LIG    1       31.656  18.511 186.041  0.00  0.00    +0.146 C 
BRANCH  22  23
ATOM     23  C   LIG    1       31.036  17.915 184.800  0.00  0.00    +0.007 A 
ATOM     24  S   LIG    1       31.966  17.707 183.354  0.00  0.00    -0.100 S 
ATOM     25  C   LIG    1       30.601  17.034 182.535  0.00  0.00    +0.045 A 
ATOM     26  C   LIG    1       29.501  16.985 183.340  0.00  0.00    +0.008 A 
ATOM     27  C   LIG    1       29.748  17.488 184.630  0.00  0.00    +0.013 A 
ENDBRANCH  22  23
ENDBRANCH  19  22
ENDBRANCH  17  18
ENDBRANCH   1  17
TORSDOF 6
