REMARK VINA RESULT:      -6.1      2.414      4.842
REMARK  Name = ZINC000000622877
REMARK                            x       y       z     vdW  Elec       q    Type
REMARK                         _______ _______ _______ _____ _____    ______ ____
ROOT
ATOM      1  O   LIG    1       28.004  22.420 204.951  0.00  0.00    -0.274 OA
ATOM      2  C   LIG    1       28.946  22.962 205.508  0.00  0.00    +0.235 C 
ATOM      3  N   LIG    1       29.765  22.239 206.320  0.00  0.00    -0.219 N 
ATOM      4  H   LIG    1       30.663  22.630 206.650  0.00  0.00    +0.176 HD
ENDROOT
BRANCH   3   5
ATOM      5  N   LIG    1       29.555  20.797 206.548  0.00  0.00    -0.217 N 
ATOM      6  C   LIG    1       28.718  20.303 207.563  0.00  0.00    +0.079 A 
ATOM      7  C   LIG    1       28.562  18.961 207.434  0.00  0.00    +0.078 A 
ATOM      8  S   LIG    1       29.460  18.290 206.111  0.00  0.00    -0.033 S 
ATOM      9  C   LIG    1       30.073  19.858 205.686  0.00  0.00    +0.308 A 
ATOM     10  O   LIG    1       30.873  20.126 204.763  0.00  0.00    -0.258 OA
BRANCH   6  11
ATOM     11  C   LIG    1       28.141  21.173 208.578  0.00  0.00    +0.001 A 
ATOM     12  C   LIG    1       26.764  21.163 208.838  0.00  0.00    +0.010 A 
ATOM     13  C   LIG    1       26.216  22.002 209.803  0.00  0.00    +0.001 A 
ATOM     14  C   LIG    1       27.036  22.864 210.523  0.00  0.00    +0.000 A 
ATOM     15  C   LIG    1       28.405  22.883 210.277  0.00  0.00    +0.001 A 
ATOM     16  C   LIG    1       28.952  22.045 209.313  0.00  0.00    +0.010 A 
ENDBRANCH   6  11
ENDBRANCH   3   5
BRANCH   2  17
ATOM     17  C   LIG    1       29.251  24.435 205.319  0.00  0.00    +0.132 C 
BRANCH  17  18
ATOM     18  C   LIG    1       29.046  25.136 206.655  0.00  0.00    -0.039 A 
ATOM     19  C   LIG    1       27.760  25.426 207.111  0.00  0.00    +0.005 A 
ATOM     20  C   LIG    1       27.575  26.050 208.341  0.00  0.00    +0.015 A 
ATOM     21  C   LIG    1       28.674  26.390 209.126  0.00  0.00    +0.018 A 
ATOM     22 BR   LIG    1       28.421  27.236 210.799  0.00  0.00    -0.050 Br
ATOM     23  C   LIG    1       29.959  26.105 208.673  0.00  0.00    +0.015 A 
ATOM     24  C   LIG    1       30.145  25.483 207.442  0.00  0.00    +0.005 A 
ENDBRANCH  17  18
ENDBRANCH   2  17
TORSDOF 4
