REMARK VINA RESULT:      -7.3     30.553     32.444
REMARK  Name = ZINC000009107243
REMARK                            x       y       z     vdW  Elec       q    Type
REMARK                         _______ _______ _______ _____ _____    ______ ____
ROOT
ATOM      1  N   LIG    1       19.610  48.366 187.979  0.00  0.00    -0.285 N 
ATOM      2  H   LIG    1       19.943  49.330 188.118  0.00  0.00    +0.155 HD
ATOM      3  C   LIG    1       18.523  48.249 187.150  0.00  0.00    +0.222 C 
ATOM      4  O   LIG    1       18.143  47.160 186.770  0.00  0.00    -0.275 OA
ENDROOT
BRANCH   1   9
ATOM      5  N   LIG    1       22.822  44.262 190.087  0.00  0.00    -0.271 N 
ATOM      6  C   LIG    1       22.003  45.299 189.535  0.00  0.00    +0.040 A 
ATOM      7  C   LIG    1       22.035  45.604 188.168  0.00  0.00    +0.025 A 
ATOM      8  C   LIG    1       21.229  46.620 187.671  0.00  0.00    +0.025 A 
ATOM      9  C   LIG    1       20.393  47.327 188.537  0.00  0.00    +0.034 A 
ATOM     10  C   LIG    1       20.360  47.027 189.902  0.00  0.00    +0.028 A 
ATOM     11  C   LIG    1       21.159  46.004 190.407  0.00  0.00    -0.024 A 
ATOM     12  C   LIG    1       21.127  45.668 191.885  0.00  0.00    +0.046 C 
ATOM     13  C   LIG    1       21.184  44.132 191.962  0.00  0.00    +0.101 C 
ATOM     14  C   LIG    1       22.486  43.715 191.314  0.00  0.00    +0.220 C 
ATOM     15  O   LIG    1       23.233  42.918 191.853  0.00  0.00    -0.275 OA
BRANCH   5  16
ATOM     16  C   LIG    1       24.065  43.821 189.422  0.00  0.00    +0.113 C 
BRANCH  16  18
ATOM     17  C   LIG    1       24.891  42.167 187.775  0.00  0.00    +0.005 C 
ATOM     18  C   LIG    1       23.629  42.877 188.283  0.00  0.00    +0.016 C 
ENDBRANCH  16  18
ENDBRANCH   5  16
ENDBRANCH   1   9
BRANCH   3  19
ATOM     19  C   LIG    1       17.823  49.527 186.726  0.00  0.00    +0.131 C 
BRANCH  19  20
ATOM     20  C   LIG    1       18.615  50.142 185.579  0.00  0.00    -0.035 A 
ATOM     21  C   LIG    1       19.023  49.355 184.500  0.00  0.00    +0.053 A 
ATOM     22  C   LIG    1       19.721  49.931 183.436  0.00  0.00    +0.162 A 
ATOM     23  C   LIG    1       20.013  51.307 183.456  0.00  0.00    +0.161 A 
ATOM     24  C   LIG    1       19.610  52.085 184.535  0.00  0.00    +0.049 A 
ATOM     25  C   LIG    1       18.914  51.506 185.593  0.00  0.00    +0.008 A 
BRANCH  22  26
ATOM     26  O   LIG    1       20.116  49.137 182.365  0.00  0.00    -0.491 OA
ATOM     27  C   LIG    1       21.367  48.423 182.237  0.00  0.00    +0.277 C 
ENDBRANCH  22  26
BRANCH  23  28
ATOM     28  O   LIG    1       20.695  51.992 182.456  0.00  0.00    -0.491 OA
ATOM     29  C   LIG    1       20.266  52.247 181.100  0.00  0.00    +0.277 C 
ENDBRANCH  23  28
ENDBRANCH  19  20
ENDBRANCH   3  19
TORSDOF 7
