REMARK VINA RESULT:      -8.2      2.782      3.421
REMARK  Name = ZINC000049483826
REMARK                            x       y       z     vdW  Elec       q    Type
REMARK                         _______ _______ _______ _____ _____    ______ ____
ROOT
ATOM      1  N   LIG    1       27.430  17.067 186.659  0.00  0.00    -0.175 NA
ATOM      2  C   LIG    1       27.653  15.931 187.559  0.00  0.00    +0.123 C 
ATOM      3  C   LIG    1       26.779  16.695 188.586  0.00  0.00    +0.109 C 
ATOM      4  C   LIG    1       27.030  17.972 187.742  0.00  0.00    +0.123 C 
ENDROOT
BRANCH   3   5
ATOM      5  C   LIG    1       27.413  16.766 189.954  0.00  0.00    +0.233 A 
ATOM      6  O   LIG    1       28.499  17.489 190.125  0.00  0.00    -0.337 OA
ATOM      7  N   LIG    1       28.858  17.394 191.387  0.00  0.00    -0.056 NA
ATOM      8  C   LIG    1       27.981  16.623 191.935  0.00  0.00    +0.209 A 
ATOM      9  N   LIG    1       27.050  16.211 191.037  0.00  0.00    -0.191 NA
BRANCH   8  10
ATOM     10  C   LIG    1       27.992  16.242 193.341  0.00  0.00    +0.060 A 
ATOM     11  S   LIG    1       26.523  15.936 194.220  0.00  0.00    -0.093 S 
ATOM     12  C   LIG    1       27.404  15.586 195.662  0.00  0.00    +0.046 A 
ATOM     13  C   LIG    1       28.752  15.699 195.472  0.00  0.00    +0.008 A 
ATOM     14  C   LIG    1       29.085  16.070 194.161  0.00  0.00    +0.019 A 
ENDBRANCH   8  10
ENDBRANCH   3   5
BRANCH   1  15
ATOM     15  S   LIG    1       26.584  16.923 185.258  0.00  0.00    +0.061 S 
ATOM     16  O   LIG    1       25.820  15.726 185.302  0.00  0.00    -0.153 OA
ATOM     17  O   LIG    1       25.854  18.130 185.065  0.00  0.00    -0.153 OA
BRANCH  15  20
ATOM     18  C   LIG    1       29.710  17.563 185.543  0.00  0.00    +0.046 C 
ATOM     19  C   LIG    1       29.206  17.097 184.186  0.00  0.00    -0.024 A 
ATOM     20  C   LIG    1       27.849  16.790 183.962  0.00  0.00    +0.110 A 
ATOM     21  C   LIG    1       27.455  16.361 182.691  0.00  0.00    +0.048 A 
ATOM     22  C   LIG    1       28.383  16.243 181.659  0.00  0.00    +0.043 A 
ATOM     23 CL   LIG    1       27.869  15.718 180.092  0.00  0.00    -0.083 Cl
ATOM     24  C   LIG    1       29.721  16.548 181.885  0.00  0.00    +0.020 A 
ATOM     25  C   LIG    1       30.127  16.972 183.143  0.00  0.00    +0.007 A 
ENDBRANCH  15  20
ENDBRANCH   1  15
TORSDOF 4
