MODEL 1
REMARK VINA RESULT:      -7.5      0.000      0.000
REMARK  Name = ZINC000006087402
REMARK                            x       y       z     vdW  Elec       q    Type
REMARK                         _______ _______ _______ _____ _____    ______ ____
ROOT
ATOM      1  C   LIG    1       21.946  46.507 183.081  0.00  0.00    +0.214 C 
ENDROOT
BRANCH   1   7
ATOM      2  C   LIG    1       18.636  50.298 186.001  0.00  0.00    +0.010 C 
ATOM      3  C   LIG    1       19.290  49.951 184.642  0.00  0.00    +0.018 C 
ATOM      4  C   LIG    1       20.823  49.661 184.779  0.00  0.00    +0.115 C 
ATOM      5  C   LIG    1       21.349  48.891 183.561  0.00  0.00    +0.247 C 
ATOM      6  O   LIG    1       21.490  49.234 182.400  0.00  0.00    -0.273 OA
ATOM      7  N   LIG    1       21.672  47.637 183.974  0.00  0.00    -0.215 N 
ATOM      8  C   LIG    1       21.444  47.502 185.314  0.00  0.00    +0.310 C 
ATOM      9  O   LIG    1       21.558  46.467 185.946  0.00  0.00    -0.252 OA
ATOM     10  N   LIG    1       21.054  48.682 185.833  0.00  0.00    -0.285 N 
ATOM     11  H   LIG    1       20.557  48.686 186.729  0.00  0.00    +0.151 HD
ATOM     12  C   LIG    1       21.664  50.924 185.101  0.00  0.00    +0.035 C 
ATOM     13  C   LIG    1       21.386  52.019 184.054  0.00  0.00    +0.003 C 
ATOM     14  C   LIG    1       19.892  52.352 183.953  0.00  0.00    +0.000 C 
ATOM     15  C   LIG    1       19.073  51.094 183.628  0.00  0.00    +0.006 C 
ENDBRANCH   1   7
BRANCH   1  16
ATOM     16  C   LIG    1       23.463  46.376 182.926  0.00  0.00    +0.238 C 
ATOM     17  N   LIG    1       23.970  45.495 181.984  0.00  0.00    -0.267 N 
ATOM     18  O   LIG    1       24.250  47.021 183.609  0.00  0.00    -0.274 OA
BRANCH  17  19
ATOM     19  C   LIG    1       23.145  44.584 181.273  0.00  0.00    +0.010 C 
ATOM     20  C   LIG    1       22.613  43.411 182.080  0.00  0.00    +0.051 C 
ATOM     21  C   LIG    1       22.150  42.325 181.086  0.00  0.00    +0.006 C 
ATOM     22  C   LIG    1       21.175  42.987 180.091  0.00  0.00    +0.004 C 
ATOM     23  C   LIG    1       21.997  43.884 179.139  0.00  0.00    +0.029 C 
ATOM     24  C   LIG    1       22.856  44.812 179.977  0.00  0.00    -0.008 C 
ENDBRANCH  17  19
BRANCH  17  25
ATOM     25  C   LIG    1       25.431  45.416 181.783  0.00  0.00    +0.187 C 
BRANCH  25  26
ATOM     26  C   LIG    1       25.880  44.179 182.534  0.00  0.00    +0.122 A 
ATOM     27  O   LIG    1       25.855  44.149 183.896  0.00  0.00    -0.466 OA
ATOM     28  C   LIG    1       26.319  42.933 184.281  0.00  0.00    +0.195 A 
ATOM     29  C   LIG    1       26.633  42.202 183.188  0.00  0.00    +0.041 A 
ATOM     30  C   LIG    1       26.354  42.998 182.073  0.00  0.00    +0.046 A 
ENDBRANCH  25  26
ENDBRANCH  17  25
ENDBRANCH   1  16
TORSDOF 5
ENDMDL
MODEL 2
REMARK VINA RESULT:      -7.1     27.058     29.402
REMARK  Name = ZINC000006087402
REMARK                            x       y       z     vdW  Elec       q    Type
REMARK                         _______ _______ _______ _____ _____    ______ ____
ROOT
ATOM      1  C   LIG    1       19.545  40.426 210.011  0.00  0.00    +0.214 C 
ENDROOT
BRANCH   1   7
ATOM      2  C   LIG    1       14.623  37.708 208.516  0.00  0.00    +0.010 C 
ATOM      3  C   LIG    1       15.593  38.057 209.671  0.00  0.00    +0.018 C 
ATOM      4  C   LIG    1       17.076  37.682 209.334  0.00  0.00    +0.115 C 
ATOM      5  C   LIG    1       18.054  38.428 210.249  0.00  0.00    +0.247 C 
ATOM      6  O   LIG    1       18.269  38.322 211.444  0.00  0.00    -0.273 OA
ATOM      7  N   LIG    1       18.727  39.329 209.485  0.00  0.00    -0.215 N 
ATOM      8  C   LIG    1       18.325  39.246 208.183  0.00  0.00    +0.310 C 
ATOM      9  O   LIG    1       18.688  39.985 207.286  0.00  0.00    -0.252 OA
ATOM     10  N   LIG    1       17.449  38.233 208.038  0.00  0.00    -0.285 N 
ATOM     11  H   LIG    1       16.830  38.228 207.221  0.00  0.00    +0.151 HD
ATOM     12  C   LIG    1       17.332  36.152 209.300  0.00  0.00    +0.035 C 
ATOM     13  C   LIG    1       16.872  35.514 210.625  0.00  0.00    +0.003 C 
ATOM     14  C   LIG    1       15.403  35.828 210.935  0.00  0.00    +0.000 C 
ATOM     15  C   LIG    1       15.166  37.346 210.972  0.00  0.00    +0.006 C 
ENDBRANCH   1   7
BRANCH   1  16
ATOM     16  C   LIG    1       21.017  40.028 209.881  0.00  0.00    +0.238 C 
ATOM     17  N   LIG    1       21.743  39.746 211.028  0.00  0.00    -0.267 N 
ATOM     18  O   LIG    1       21.584  39.954 208.797  0.00  0.00    -0.274 OA
BRANCH  17  19
ATOM     19  C   LIG    1       21.225  39.972 212.330  0.00  0.00    +0.010 C 
ATOM     20  C   LIG    1       20.946  41.424 212.683  0.00  0.00    +0.051 C 
ATOM     21  C   LIG    1       20.841  41.525 214.220  0.00  0.00    +0.006 C 
ATOM     22  C   LIG    1       19.806  40.482 214.688  0.00  0.00    +0.004 C 
ATOM     23  C   LIG    1       20.445  39.081 214.557  0.00  0.00    +0.029 C 
ATOM     24  C   LIG    1       20.982  38.929 213.146  0.00  0.00    -0.008 C 
ENDBRANCH  17  19
BRANCH  17  25
ATOM     25  C   LIG    1       23.144  39.295 210.903  0.00  0.00    +0.187 C 
BRANCH  25  26
ATOM     26  C   LIG    1       23.988  40.429 211.448  0.00  0.00    +0.122 A 
ATOM     27  O   LIG    1       23.995  41.644 210.834  0.00  0.00    -0.466 OA
ATOM     28  C   LIG    1       24.840  42.445 211.532  0.00  0.00    +0.195 A 
ATOM     29  C   LIG    1       25.361  41.755 212.570  0.00  0.00    +0.041 A 
ATOM     30  C   LIG    1       24.818  40.467 212.517  0.00  0.00    +0.046 A 
ENDBRANCH  25  26
ENDBRANCH  17  25
ENDBRANCH   1  16
TORSDOF 5
ENDMDL
MODEL 3
REMARK VINA RESULT:      -7.0     29.753     32.068
REMARK  Name = ZINC000006087402
REMARK                            x       y       z     vdW  Elec       q    Type
REMARK                         _______ _______ _______ _____ _____    ______ ____
ROOT
ATOM      1  C   LIG    1       39.758  21.381 191.009  0.00  0.00    +0.214 C 
ENDROOT
BRANCH   1   7
ATOM      2  C   LIG    1       39.324  25.713 194.869  0.00  0.00    +0.010 C 
ATOM      3  C   LIG    1       40.287  24.805 194.066  0.00  0.00    +0.018 C 
ATOM      4  C   LIG    1       39.950  23.285 194.238  0.00  0.00    +0.115 C 
ATOM      5  C   LIG    1       40.583  22.450 193.118  0.00  0.00    +0.247 C 
ATOM      6  O   LIG    1       41.749  22.193 192.876  0.00  0.00    -0.273 OA
ATOM      7  N   LIG    1       39.576  21.982 192.334  0.00  0.00    -0.215 N 
ATOM      8  C   LIG    1       38.365  22.389 192.817  0.00  0.00    +0.310 C 
ATOM      9  O   LIG    1       37.291  22.196 192.276  0.00  0.00    -0.252 OA
ATOM     10  N   LIG    1       38.535  23.054 193.976  0.00  0.00    -0.285 N 
ATOM     11  H   LIG    1       37.790  23.678 194.301  0.00  0.00    +0.151 HD
ATOM     12  C   LIG    1       40.274  22.737 195.653  0.00  0.00    +0.035 C 
ATOM     13  C   LIG    1       41.743  23.035 196.006  0.00  0.00    +0.003 C 
ATOM     14  C   LIG    1       42.069  24.530 195.897  0.00  0.00    +0.000 C 
ATOM     15  C   LIG    1       41.749  25.057 194.490  0.00  0.00    +0.006 C 
ENDBRANCH   1   7
BRANCH   1  16
ATOM     16  C   LIG    1       39.821  19.861 191.179  0.00  0.00    +0.238 C 
ATOM     17  N   LIG    1       39.069  19.058 190.336  0.00  0.00    -0.267 N 
ATOM     18  O   LIG    1       40.511  19.325 192.038  0.00  0.00    -0.274 OA
BRANCH  17  19
ATOM     19  C   LIG    1       38.112  19.590 189.432  0.00  0.00    +0.010 C 
ATOM     20  C   LIG    1       38.570  19.715 187.988  0.00  0.00    +0.051 C 
ATOM     21  C   LIG    1       37.621  20.701 187.274  0.00  0.00    +0.006 C 
ATOM     22  C   LIG    1       36.177  20.212 187.508  0.00  0.00    +0.004 C 
ATOM     23  C   LIG    1       35.805  20.503 188.979  0.00  0.00    +0.029 C 
ATOM     24  C   LIG    1       36.881  19.914 189.872  0.00  0.00    -0.008 C 
ENDBRANCH  17  19
BRANCH  17  25
ATOM     25  C   LIG    1       39.179  17.589 190.450  0.00  0.00    +0.187 C 
BRANCH  25  26
ATOM     26  C   LIG    1       37.895  17.134 191.113  0.00  0.00    +0.122 A 
ATOM     27  O   LIG    1       37.566  17.571 192.360  0.00  0.00    -0.466 OA
ATOM     28  C   LIG    1       36.384  16.993 192.692  0.00  0.00    +0.195 A 
ATOM     29  C   LIG    1       35.966  16.205 191.677  0.00  0.00    +0.041 A 
ATOM     30  C   LIG    1       36.931  16.294 190.668  0.00  0.00    +0.046 A 
ENDBRANCH  25  26
ENDBRANCH  17  25
ENDBRANCH   1  16
TORSDOF 5
ENDMDL
MODEL 4
REMARK VINA RESULT:      -7.0     25.983     28.340
REMARK  Name = ZINC000006087402
REMARK                            x       y       z     vdW  Elec       q    Type
REMARK                         _______ _______ _______ _____ _____    ______ ____
ROOT
ATOM      1  C   LIG    1       23.850  43.281 211.049  0.00  0.00    +0.214 C 
ENDROOT
BRANCH   1   7
ATOM      2  C   LIG    1       19.673  39.930 208.775  0.00  0.00    +0.010 C 
ATOM      3  C   LIG    1       20.239  40.572 210.064  0.00  0.00    +0.018 C 
ATOM      4  C   LIG    1       21.761  40.263 210.262  0.00  0.00    +0.115 C 
ATOM      5  C   LIG    1       22.400  41.249 211.248  0.00  0.00    +0.247 C 
ATOM      6  O   LIG    1       22.245  41.391 212.449  0.00  0.00    -0.273 OA
ATOM      7  N   LIG    1       23.253  42.040 210.546  0.00  0.00    -0.215 N 
ATOM      8  C   LIG    1       23.267  41.677 209.229  0.00  0.00    +0.310 C 
ATOM      9  O   LIG    1       23.869  42.259 208.345  0.00  0.00    -0.252 OA
ATOM     10  N   LIG    1       22.498  40.586 209.047  0.00  0.00    -0.285 N 
ATOM     11  H   LIG    1       22.157  40.375 208.104  0.00  0.00    +0.151 HD
ATOM     12  C   LIG    1       22.048  38.781 210.621  0.00  0.00    +0.035 C 
ATOM     13  C   LIG    1       21.223  38.372 211.855  0.00  0.00    +0.003 C 
ATOM     14  C   LIG    1       19.723  38.617 211.650  0.00  0.00    +0.000 C 
ATOM     15  C   LIG    1       19.452  40.088 211.301  0.00  0.00    +0.006 C 
ENDBRANCH   1   7
BRANCH   1  16
ATOM     16  C   LIG    1       25.362  43.074 211.159  0.00  0.00    +0.238 C 
ATOM     17  N   LIG    1       26.213  43.988 210.556  0.00  0.00    -0.267 N 
ATOM     18  O   LIG    1       25.853  42.124 211.758  0.00  0.00    -0.274 OA
BRANCH  17  19
ATOM     19  C   LIG    1       25.740  45.016 209.699  0.00  0.00    +0.010 C 
ATOM     20  C   LIG    1       25.320  46.304 210.386  0.00  0.00    +0.051 C 
ATOM     21  C   LIG    1       24.433  47.098 209.404  0.00  0.00    +0.006 C 
ATOM     22  C   LIG    1       25.210  47.236 208.079  0.00  0.00    +0.004 C 
ATOM     23  C   LIG    1       25.214  45.858 207.380  0.00  0.00    +0.029 C 
ATOM     24  C   LIG    1       25.718  44.821 208.366  0.00  0.00    -0.008 C 
ENDBRANCH  17  19
BRANCH  17  25
ATOM     25  C   LIG    1       27.673  43.830 210.717  0.00  0.00    +0.187 C 
BRANCH  25  26
ATOM     26  C   LIG    1       28.111  44.975 211.606  0.00  0.00    +0.122 A 
ATOM     27  O   LIG    1       27.635  45.087 212.877  0.00  0.00    -0.466 OA
ATOM     28  C   LIG    1       28.188  46.201 213.419  0.00  0.00    +0.195 A 
ATOM     29  C   LIG    1       29.000  46.789 212.513  0.00  0.00    +0.041 A 
ATOM     30  C   LIG    1       28.952  46.007 211.355  0.00  0.00    +0.046 A 
ENDBRANCH  25  26
ENDBRANCH  17  25
ENDBRANCH   1  16
TORSDOF 5
ENDMDL
MODEL 5
REMARK VINA RESULT:      -7.0     32.298     35.714
REMARK  Name = ZINC000006087402
REMARK                            x       y       z     vdW  Elec       q    Type
REMARK                         _______ _______ _______ _____ _____    ______ ____
ROOT
ATOM      1  C   LIG    1       29.335  21.154 208.029  0.00  0.00    +0.214 C 
ENDROOT
BRANCH   1   7
ATOM      2  C   LIG    1       26.424  24.954 204.721  0.00  0.00    +0.010 C 
ATOM      3  C   LIG    1       27.647  24.009 204.812  0.00  0.00    +0.018 C 
ATOM      4  C   LIG    1       28.499  24.264 206.101  0.00  0.00    +0.115 C 
ATOM      5  C   LIG    1       29.402  23.064 206.411  0.00  0.00    +0.247 C 
ATOM      6  O   LIG    1       30.374  22.622 205.822  0.00  0.00    -0.273 OA
ATOM      7  N   LIG    1       28.936  22.479 207.546  0.00  0.00    -0.215 N 
ATOM      8  C   LIG    1       27.855  23.163 208.026  0.00  0.00    +0.310 C 
ATOM      9  O   LIG    1       27.176  22.825 208.978  0.00  0.00    -0.252 OA
ATOM     10  N   LIG    1       27.639  24.261 207.277  0.00  0.00    -0.285 N 
ATOM     11  H   LIG    1       26.714  24.703 207.304  0.00  0.00    +0.151 HD
ATOM     12  C   LIG    1       29.274  25.608 206.072  0.00  0.00    +0.035 C 
ATOM     13  C   LIG    1       30.135  25.689 204.798  0.00  0.00    +0.003 C 
ATOM     14  C   LIG    1       29.300  25.498 203.526  0.00  0.00    +0.000 C 
ATOM     15  C   LIG    1       28.544  24.161 203.565  0.00  0.00    +0.006 C 
ENDBRANCH   1   7
BRANCH   1  16
ATOM     16  C   LIG    1       28.921  20.119 206.980  0.00  0.00    +0.238 C 
ATOM     17  N   LIG    1       29.851  19.182 206.554  0.00  0.00    -0.267 N 
ATOM     18  O   LIG    1       27.796  20.088 206.496  0.00  0.00    -0.274 OA
BRANCH  17  19
ATOM     19  C   LIG    1       31.220  19.247 206.925  0.00  0.00    +0.010 C 
ATOM     20  C   LIG    1       31.534  18.836 208.354  0.00  0.00    +0.051 C 
ATOM     21  C   LIG    1       32.929  19.392 208.711  0.00  0.00    +0.006 C 
ATOM     22  C   LIG    1       33.912  18.924 207.618  0.00  0.00    +0.004 C 
ATOM     23  C   LIG    1       33.623  19.734 206.334  0.00  0.00    +0.029 C 
ATOM     24  C   LIG    1       32.143  19.622 206.019  0.00  0.00    -0.008 C 
ENDBRANCH  17  19
BRANCH  17  25
ATOM     25  C   LIG    1       29.437  18.139 205.594  0.00  0.00    +0.187 C 
BRANCH  25  26
ATOM     26  C   LIG    1       29.659  16.819 206.304  0.00  0.00    +0.122 A 
ATOM     27  O   LIG    1       28.932  16.496 207.409  0.00  0.00    -0.466 OA
ATOM     28  C   LIG    1       29.354  15.276 207.828  0.00  0.00    +0.195 A 
ATOM     29  C   LIG    1       30.329  14.830 207.007  0.00  0.00    +0.041 A 
ATOM     30  C   LIG    1       30.525  15.814 206.033  0.00  0.00    +0.046 A 
ENDBRANCH  25  26
ENDBRANCH  17  25
ENDBRANCH   1  16
TORSDOF 5
ENDMDL
MODEL 6
REMARK VINA RESULT:      -6.9      2.075      3.508
REMARK  Name = ZINC000006087402
REMARK                            x       y       z     vdW  Elec       q    Type
REMARK                         _______ _______ _______ _____ _____    ______ ____
ROOT
ATOM      1  C   LIG    1       23.962  47.199 183.269  0.00  0.00    +0.214 C 
ENDROOT
BRANCH   1   7
ATOM      2  C   LIG    1       21.100  52.079 181.910  0.00  0.00    +0.010 C 
ATOM      3  C   LIG    1       21.696  51.219 183.051  0.00  0.00    +0.018 C 
ATOM      4  C   LIG    1       21.207  49.733 182.991  0.00  0.00    +0.115 C 
ATOM      5  C   LIG    1       22.128  48.817 183.807  0.00  0.00    +0.247 C 
ATOM      6  O   LIG    1       22.314  48.737 185.009  0.00  0.00    -0.273 OA
ATOM      7  N   LIG    1       22.793  48.017 182.932  0.00  0.00    -0.215 N 
ATOM      8  C   LIG    1       22.403  48.283 181.650  0.00  0.00    +0.310 C 
ATOM      9  O   LIG    1       22.888  47.785 180.650  0.00  0.00    -0.252 OA
ATOM     10  N   LIG    1       21.411  49.193 181.653  0.00  0.00    -0.285 N 
ATOM     11  H   LIG    1       21.222  49.721 180.795  0.00  0.00    +0.151 HD
ATOM     12  C   LIG    1       19.709  49.561 183.358  0.00  0.00    +0.035 C 
ATOM     13  C   LIG    1       19.431  50.193 184.734  0.00  0.00    +0.003 C 
ATOM     14  C   LIG    1       19.853  51.667 184.785  0.00  0.00    +0.000 C 
ATOM     15  C   LIG    1       21.339  51.822 184.427  0.00  0.00    +0.006 C 
ENDBRANCH   1   7
BRANCH   1  16
ATOM     16  C   LIG    1       23.544  45.728 183.228  0.00  0.00    +0.238 C 
ATOM     17  N   LIG    1       24.405  44.798 182.665  0.00  0.00    -0.267 N 
ATOM     18  O   LIG    1       22.470  45.339 183.672  0.00  0.00    -0.274 OA
BRANCH  17  19
ATOM     19  C   LIG    1       25.585  45.176 181.973  0.00  0.00    +0.010 C 
ATOM     20  C   LIG    1       26.819  45.374 182.836  0.00  0.00    +0.051 C 
ATOM     21  C   LIG    1       27.838  46.201 182.024  0.00  0.00    +0.006 C 
ATOM     22  C   LIG    1       28.041  45.492 180.669  0.00  0.00    +0.004 C 
ATOM     23  C   LIG    1       26.773  45.719 179.815  0.00  0.00    +0.029 C 
ATOM     24  C   LIG    1       25.564  45.303 180.632  0.00  0.00    -0.008 C 
ENDBRANCH  17  19
BRANCH  17  25
ATOM     25  C   LIG    1       24.035  43.368 182.685  0.00  0.00    +0.187 C 
BRANCH  25  26
ATOM     26  C   LIG    1       24.554  42.831 184.003  0.00  0.00    +0.122 A 
ATOM     27  O   LIG    1       23.730  42.732 185.083  0.00  0.00    -0.466 OA
ATOM     28  C   LIG    1       24.468  42.237 186.109  0.00  0.00    +0.195 A 
ATOM     29  C   LIG    1       25.735  42.023 185.693  0.00  0.00    +0.041 A 
ATOM     30  C   LIG    1       25.791  42.402 184.348  0.00  0.00    +0.046 A 
ENDBRANCH  25  26
ENDBRANCH  17  25
ENDBRANCH   1  16
TORSDOF 5
ENDMDL
MODEL 7
REMARK VINA RESULT:      -6.8     29.997     32.266
REMARK  Name = ZINC000006087402
REMARK                            x       y       z     vdW  Elec       q    Type
REMARK                         _______ _______ _______ _____ _____    ______ ____
ROOT
ATOM      1  C   LIG    1       38.117  20.867 192.571  0.00  0.00    +0.214 C 
ENDROOT
BRANCH   1   7
ATOM      2  C   LIG    1       35.069  18.799 188.068  0.00  0.00    +0.010 C 
ATOM      3  C   LIG    1       36.413  18.750 188.835  0.00  0.00    +0.018 C 
ATOM      4  C   LIG    1       37.026  20.175 189.047  0.00  0.00    +0.115 C 
ATOM      5  C   LIG    1       38.072  20.163 190.168  0.00  0.00    +0.247 C 
ATOM      6  O   LIG    1       39.176  19.649 190.225  0.00  0.00    -0.273 OA
ATOM      7  N   LIG    1       37.565  20.869 191.213  0.00  0.00    -0.215 N 
ATOM      8  C   LIG    1       36.328  21.358 190.903  0.00  0.00    +0.310 C 
ATOM      9  O   LIG    1       35.594  21.954 191.671  0.00  0.00    -0.252 OA
ATOM     10  N   LIG    1       36.029  21.068 189.622  0.00  0.00    -0.285 N 
ATOM     11  H   LIG    1       35.046  21.085 189.329  0.00  0.00    +0.151 HD
ATOM     12  C   LIG    1       37.554  20.821 187.739  0.00  0.00    +0.035 C 
ATOM     13  C   LIG    1       38.553  19.871 187.052  0.00  0.00    +0.003 C 
ATOM     14  C   LIG    1       37.942  18.489 186.787  0.00  0.00    +0.000 C 
ATOM     15  C   LIG    1       37.430  17.859 188.091  0.00  0.00    +0.006 C 
ENDBRANCH   1   7
BRANCH   1  16
ATOM     16  C   LIG    1       39.135  22.005 192.674  0.00  0.00    +0.238 C 
ATOM     17  N   LIG    1       40.106  21.953 193.663  0.00  0.00    -0.267 N 
ATOM     18  O   LIG    1       39.121  22.968 191.917  0.00  0.00    -0.274 OA
BRANCH  17  19
ATOM     19  C   LIG    1       40.095  20.972 194.689  0.00  0.00    +0.010 C 
ATOM     20  C   LIG    1       41.283  20.025 194.707  0.00  0.00    +0.051 C 
ATOM     21  C   LIG    1       40.892  18.791 195.548  0.00  0.00    +0.006 C 
ATOM     22  C   LIG    1       40.383  19.298 196.913  0.00  0.00    +0.004 C 
ATOM     23  C   LIG    1       38.989  19.928 196.701  0.00  0.00    +0.029 C 
ATOM     24  C   LIG    1       39.089  20.950 195.584  0.00  0.00    -0.008 C 
ENDBRANCH  17  19
BRANCH  17  25
ATOM     25  C   LIG    1       41.132  23.014 193.723  0.00  0.00    +0.187 C 
BRANCH  25  26
ATOM     26  C   LIG    1       40.738  23.896 194.890  0.00  0.00    +0.122 A 
ATOM     27  O   LIG    1       39.539  24.543 194.896  0.00  0.00    -0.466 OA
ATOM     28  C   LIG    1       39.472  25.257 196.047  0.00  0.00    +0.195 A 
ATOM     29  C   LIG    1       40.603  25.070 196.762  0.00  0.00    +0.041 A 
ATOM     30  C   LIG    1       41.413  24.202 196.023  0.00  0.00    +0.046 A 
ENDBRANCH  25  26
ENDBRANCH  17  25
ENDBRANCH   1  16
TORSDOF 5
ENDMDL
MODEL 8
REMARK VINA RESULT:      -6.8      1.602      2.369
REMARK  Name = ZINC000006087402
REMARK                            x       y       z     vdW  Elec       q    Type
REMARK                         _______ _______ _______ _____ _____    ______ ____
ROOT
ATOM      1  C   LIG    1       21.357  46.393 181.910  0.00  0.00    +0.214 C 
ENDROOT
BRANCH   1   7
ATOM      2  C   LIG    1       22.879  51.055 185.040  0.00  0.00    +0.010 C 
ATOM      3  C   LIG    1       21.716  50.135 184.596  0.00  0.00    +0.018 C 
ATOM      4  C   LIG    1       21.660  49.959 183.041  0.00  0.00    +0.115 C 
ATOM      5  C   LIG    1       20.834  48.726 182.656  0.00  0.00    +0.247 C 
ATOM      6  O   LIG    1       19.640  48.502 182.753  0.00  0.00    -0.273 OA
ATOM      7  N   LIG    1       21.688  47.803 182.140  0.00  0.00    -0.215 N 
ATOM      8  C   LIG    1       22.963  48.291 182.120  0.00  0.00    +0.310 C 
ATOM      9  O   LIG    1       23.953  47.660 181.794  0.00  0.00    -0.252 OA
ATOM     10  N   LIG    1       22.969  49.572 182.534  0.00  0.00    -0.285 N 
ATOM     11  H   LIG    1       23.849  49.979 182.868  0.00  0.00    +0.151 HD
ATOM     12  C   LIG    1       21.211  51.241 182.291  0.00  0.00    +0.035 C 
ATOM     13  C   LIG    1       19.865  51.734 182.855  0.00  0.00    +0.003 C 
ATOM     14  C   LIG    1       19.927  51.965 184.370  0.00  0.00    +0.000 C 
ATOM     15  C   LIG    1       20.366  50.687 185.100  0.00  0.00    +0.006 C 
ENDBRANCH   1   7
BRANCH   1  16
ATOM     16  C   LIG    1       21.815  45.590 183.129  0.00  0.00    +0.238 C 
ATOM     17  N   LIG    1       22.567  44.440 182.934  0.00  0.00    -0.267 N 
ATOM     18  O   LIG    1       21.539  45.922 184.275  0.00  0.00    -0.274 OA
BRANCH  17  19
ATOM     19  C   LIG    1       22.787  43.885 181.647  0.00  0.00    +0.010 C 
ATOM     20  C   LIG    1       21.954  42.659 181.308  0.00  0.00    +0.051 C 
ATOM     21  C   LIG    1       22.628  41.943 180.119  0.00  0.00    +0.006 C 
ATOM     22  C   LIG    1       22.826  42.983 178.998  0.00  0.00    +0.004 C 
ATOM     23  C   LIG    1       23.970  43.932 179.420  0.00  0.00    +0.029 C 
ATOM     24  C   LIG    1       23.663  44.467 180.806  0.00  0.00    -0.008 C 
ENDBRANCH  17  19
BRANCH  17  25
ATOM     25  C   LIG    1       23.069  43.700 184.109  0.00  0.00    +0.187 C 
BRANCH  25  26
ATOM     26  C   LIG    1       24.546  43.478 183.851  0.00  0.00    +0.122 A 
ATOM     27  O   LIG    1       25.405  44.533 183.795  0.00  0.00    -0.466 OA
ATOM     28  C   LIG    1       26.641  44.033 183.541  0.00  0.00    +0.195 A 
ATOM     29  C   LIG    1       26.572  42.688 183.439  0.00  0.00    +0.041 A 
ATOM     30  C   LIG    1       25.235  42.332 183.636  0.00  0.00    +0.046 A 
ENDBRANCH  25  26
ENDBRANCH  17  25
ENDBRANCH   1  16
TORSDOF 5
ENDMDL
MODEL 9
REMARK VINA RESULT:      -6.8      1.803      3.170
REMARK  Name = ZINC000006087402
REMARK                            x       y       z     vdW  Elec       q    Type
REMARK                         _______ _______ _______ _____ _____    ______ ____
ROOT
ATOM      1  C   LIG    1       23.426  48.389 181.868  0.00  0.00    +0.214 C 
ENDROOT
BRANCH   1   7
ATOM      2  C   LIG    1       19.670  48.943 186.277  0.00  0.00    +0.010 C 
ATOM      3  C   LIG    1       19.889  49.106 184.753  0.00  0.00    +0.018 C 
ATOM      4  C   LIG    1       21.165  49.952 184.425  0.00  0.00    +0.115 C 
ATOM      5  C   LIG    1       21.620  49.723 182.978  0.00  0.00    +0.247 C 
ATOM      6  O   LIG    1       21.105  50.038 181.920  0.00  0.00    -0.273 OA
ATOM      7  N   LIG    1       22.798  49.045 183.019  0.00  0.00    -0.215 N 
ATOM      8  C   LIG    1       23.177  48.825 184.312  0.00  0.00    +0.310 C 
ATOM      9  O   LIG    1       24.142  48.168 184.660  0.00  0.00    -0.252 OA
ATOM     10  N   LIG    1       22.313  49.427 185.152  0.00  0.00    -0.285 N 
ATOM     11  H   LIG    1       22.271  49.111 186.127  0.00  0.00    +0.151 HD
ATOM     12  C   LIG    1       21.016  51.455 184.778  0.00  0.00    +0.035 C 
ATOM     13  C   LIG    1       19.763  52.032 184.095  0.00  0.00    +0.003 C 
ATOM     14  C   LIG    1       18.497  51.245 184.456  0.00  0.00    +0.000 C 
ATOM     15  C   LIG    1       18.656  49.760 184.096  0.00  0.00    +0.006 C 
ENDBRANCH   1   7
BRANCH   1  16
ATOM     16  C   LIG    1       22.896  46.956 181.787  0.00  0.00    +0.238 C 
ATOM     17  N   LIG    1       23.795  45.913 181.626  0.00  0.00    -0.267 N 
ATOM     18  O   LIG    1       21.701  46.693 181.856  0.00  0.00    -0.274 OA
BRANCH  17  19
ATOM     19  C   LIG    1       25.173  46.132 181.363  0.00  0.00    +0.010 C 
ATOM     20  C   LIG    1       25.587  46.039 179.903  0.00  0.00    +0.051 C 
ATOM     21  C   LIG    1       27.117  45.843 179.857  0.00  0.00    +0.006 C 
ATOM     22  C   LIG    1       27.758  46.970 180.693  0.00  0.00    +0.004 C 
ATOM     23  C   LIG    1       27.497  46.666 182.186  0.00  0.00    +0.029 C 
ATOM     24  C   LIG    1       26.009  46.433 182.374  0.00  0.00    -0.008 C 
ENDBRANCH  17  19
BRANCH  17  25
ATOM     25  C   LIG    1       23.295  44.523 181.616  0.00  0.00    +0.187 C 
BRANCH  25  26
ATOM     26  C   LIG    1       23.613  43.966 182.988  0.00  0.00    +0.122 A 
ATOM     27  O   LIG    1       22.887  44.345 184.076  0.00  0.00    -0.466 OA
ATOM     28  C   LIG    1       23.404  43.699 185.152  0.00  0.00    +0.195 A 
ATOM     29  C   LIG    1       24.438  42.924 184.759  0.00  0.00    +0.041 A 
ATOM     30  C   LIG    1       24.573  43.093 183.378  0.00  0.00    +0.046 A 
ENDBRANCH  25  26
ENDBRANCH  17  25
ENDBRANCH   1  16
TORSDOF 5
ENDMDL
