REMARK VINA RESULT:      -6.4     24.888     27.243
REMARK  Name = ZINC000070728784
REMARK                            x       y       z     vdW  Elec       q    Type
REMARK                         _______ _______ _______ _____ _____    ______ ____
ROOT
ATOM      1  C   LIG    1       23.047  42.169 209.180  0.00  0.00    +0.251 C 
ATOM      2  N   LIG    1       21.710  42.405 209.410  0.00  0.00    -0.261 N 
ATOM      3  H   LIG    1       21.415  43.385 209.331  0.00  0.00    +0.157 HD
ATOM      4  O   LIG    1       23.437  41.016 209.046  0.00  0.00    -0.270 OA
ENDROOT
BRANCH   1   6
ATOM      5  C   LIG    1       24.662  43.797 210.253  0.00  0.00    +0.020 A 
ATOM      6  C   LIG    1       23.954  43.309 209.124  0.00  0.00    +0.050 A 
ATOM      7  C   LIG    1       24.151  43.943 207.887  0.00  0.00    +0.014 A 
ATOM      8  C   LIG    1       25.056  44.985 207.747  0.00  0.00    +0.001 A 
ATOM      9  C   LIG    1       25.786  45.421 208.850  0.00  0.00    +0.001 A 
ATOM     10  C   LIG    1       25.593  44.832 210.091  0.00  0.00    +0.015 A 
BRANCH   5  11
ATOM     11  S   LIG    1       24.429  43.196 211.877  0.00  0.00    -0.122 S 
BRANCH  11  13
ATOM     12  C   LIG    1       26.689  42.054 212.782  0.00  0.00    +0.019 C 
ATOM     13  C   LIG    1       25.474  41.698 211.926  0.00  0.00    +0.045 C 
ATOM     14  C   LIG    1       24.626  40.605 212.578  0.00  0.00    +0.019 C 
ENDBRANCH  11  13
ENDBRANCH   5  11
ENDBRANCH   1   6
BRANCH   2  15
ATOM     15  C   LIG    1       20.697  41.473 209.667  0.00  0.00    +0.165 A 
ATOM     16  S   LIG    1       20.531  40.931 211.294  0.00  0.00    -0.060 S 
ATOM     17  C   LIG    1       19.252  39.929 210.753  0.00  0.00    +0.073 A 
ATOM     18  C   LIG    1       19.049  40.068 209.415  0.00  0.00    +0.064 A 
ATOM     19  N   LIG    1       19.882  40.955 208.794  0.00  0.00    -0.228 NA
BRANCH  18  20
ATOM     20  C   LIG    1       17.986  39.317 208.634  0.00  0.00    +0.140 C 
BRANCH  20  21
ATOM     21  N   LIG    1       17.242  38.445 209.594  0.00  0.00    -0.292 NA
ATOM     22  C   LIG    1       17.377  36.979 209.306  0.00  0.00    +0.113 C 
ATOM     23  C   LIG    1       16.597  36.626 208.015  0.00  0.00    +0.175 C 
ATOM     24  O   LIG    1       15.234  37.000 208.221  0.00  0.00    -0.377 OA
ATOM     25  C   LIG    1       15.070  38.407 208.390  0.00  0.00    +0.175 C 
ATOM     26  C   LIG    1       15.802  38.810 209.695  0.00  0.00    +0.113 C 
ENDBRANCH  20  21
ENDBRANCH  18  20
ENDBRANCH   2  15
TORSDOF 6
