REMARK VINA RESULT:      -9.1      7.309      8.287
REMARK  Name = ZINC000049410302
REMARK                            x       y       z     vdW  Elec       q    Type
REMARK                         _______ _______ _______ _____ _____    ______ ____
ROOT
ATOM      1  C   LIG    1       34.944  19.573 187.207  0.00  0.00    +0.314 A 
ATOM      2  O   LIG    1       34.963  20.582 186.354  0.00  0.00    -0.328 OA
ATOM      3  N   LIG    1       34.086  20.338 185.409  0.00  0.00    -0.054 NA
ATOM      4  C   LIG    1       33.559  19.194 185.707  0.00  0.00    +0.224 A 
ATOM      5  N   LIG    1       34.083  18.682 186.844  0.00  0.00    -0.182 NA
ENDROOT
BRANCH   4   6
ATOM      6  C   LIG    1       32.521  18.541 184.902  0.00  0.00    +0.153 A 
ATOM      7  N   LIG    1       32.732  17.939 183.697  0.00  0.00    -0.126 NA
ATOM      8  N   LIG    1       31.586  17.471 183.278  0.00  0.00    -0.060 NA
ATOM      9  N   LIG    1       30.645  17.764 184.199  0.00  0.00    -0.219 N 
ATOM     10  C   LIG    1       31.208  18.429 185.212  0.00  0.00    +0.148 A 
BRANCH   9  11
ATOM     11  C   LIG    1       29.253  17.403 184.071  0.00  0.00    +0.068 A 
ATOM     12  C   LIG    1       28.511  17.099 185.215  0.00  0.00    +0.047 A 
ATOM     13  C   LIG    1       27.167  16.760 185.070  0.00  0.00    +0.043 A 
ATOM     14 CL   LIG    1       26.221  16.382 186.471  0.00  0.00    -0.083 Cl
ATOM     15  C   LIG    1       26.578  16.722 183.802  0.00  0.00    +0.020 A 
ATOM     16  C   LIG    1       27.334  17.023 182.671  0.00  0.00    +0.003 A 
ATOM     17  C   LIG    1       28.678  17.365 182.797  0.00  0.00    +0.028 A 
ENDBRANCH   9  11
ENDBRANCH   4   6
BRANCH   1  20
ATOM     18  N   LIG    1       36.365  20.792 188.742  0.00  0.00    -0.278 N 
ATOM     19  H   LIG    1       36.023  21.588 188.186  0.00  0.00    +0.155 HD
ATOM     20  C   LIG    1       35.829  19.571 188.372  0.00  0.00    +0.306 C 
ATOM     21  O   LIG    1       36.096  18.566 189.028  0.00  0.00    -0.265 OA
BRANCH  18  26
ATOM     22  C   LIG    1       39.731  22.046 193.187  0.00  0.00    +0.044 C 
ATOM     23  C   LIG    1       38.854  21.703 192.002  0.00  0.00    -0.050 A 
ATOM     24  C   LIG    1       37.465  21.707 192.130  0.00  0.00    +0.005 A 
ATOM     25  C   LIG    1       36.656  21.398 191.042  0.00  0.00    +0.023 A 
ATOM     26  C   LIG    1       37.241  21.082 189.815  0.00  0.00    +0.034 A 
ATOM     27  C   LIG    1       38.631  21.088 189.672  0.00  0.00    +0.023 A 
ATOM     28  C   LIG    1       39.430  21.397 190.767  0.00  0.00    +0.005 A 
ENDBRANCH  18  26
ENDBRANCH   1  20
TORSDOF 4
