REMARK VINA RESULT:      -7.8      0.000      0.000
REMARK  Name = ZINC000000538650
REMARK                            x       y       z     vdW  Elec       q    Type
REMARK                         _______ _______ _______ _____ _____    ______ ____
ROOT
ATOM      1  C   LIG    1       18.586  38.716 210.619  0.00  0.00    +0.076 A 
ATOM      2  N   LIG    1       19.639  39.420 210.005  0.00  0.00    -0.213 N 
ATOM      3  N   LIG    1       19.744  39.782 208.691  0.00  0.00    -0.172 NA
ATOM      4  C   LIG    1       20.881  40.419 208.611  0.00  0.00    +0.148 A 
ATOM      5  C   LIG    1       21.546  40.482 209.834  0.00  0.00    +0.087 A 
ATOM      6  C   LIG    1       20.733  39.839 210.737  0.00  0.00    +0.167 A 
ATOM      7  N   LIG    1       20.828  39.609 212.103  0.00  0.00    -0.235 NA
ATOM      8  C   LIG    1       19.866  38.968 212.690  0.00  0.00    +0.115 A 
ATOM      9  C   LIG    1       18.730  38.501 211.973  0.00  0.00    +0.048 A 
ENDROOT
BRANCH   1  12
ATOM     10  C   LIG    1       16.285  36.572 208.539  0.00  0.00    +0.037 A 
ATOM     11  C   LIG    1       17.359  36.953 209.344  0.00  0.00    +0.033 A 
ATOM     12  C   LIG    1       17.455  38.268 209.813  0.00  0.00    +0.002 A 
ATOM     13  C   LIG    1       16.449  39.184 209.465  0.00  0.00    +0.010 A 
ATOM     14  C   LIG    1       15.376  38.796 208.668  0.00  0.00    +0.002 A 
ATOM     15  C   LIG    1       15.290  37.490 208.198  0.00  0.00    +0.023 A 
BRANCH  10  18
ATOM     16  C   LIG    1       15.520  32.832 208.176  0.00  0.00    +0.109 C 
ATOM     17  C   LIG    1       15.515  34.244 208.712  0.00  0.00    +0.216 C 
ATOM     18  N   LIG    1       16.224  35.238 208.044  0.00  0.00    -0.275 N 
ATOM     19  C   LIG    1       16.988  34.938 206.819  0.00  0.00    +0.138 C 
ATOM     20  O   LIG    1       14.897  34.509 209.722  0.00  0.00    -0.276 OA
ENDBRANCH  10  18
ENDBRANCH   1  12
BRANCH   5  21
ATOM     21  C   LIG    1       22.813  41.145 210.040  0.00  0.00    +0.205 C 
ATOM     22  O   LIG    1       23.648  40.574 210.742  0.00  0.00    -0.286 OA
BRANCH  21  23
ATOM     23  C   LIG    1       23.138  42.458 209.503  0.00  0.00    +0.060 A 
ATOM     24  S   LIG    1       22.198  43.856 209.937  0.00  0.00    -0.093 S 
ATOM     25  C   LIG    1       23.157  44.874 208.932  0.00  0.00    +0.046 A 
ATOM     26  C   LIG    1       24.143  44.173 208.294  0.00  0.00    +0.008 A 
ATOM     27  C   LIG    1       24.132  42.810 208.610  0.00  0.00    +0.019 A 
ENDBRANCH  21  23
ENDBRANCH   5  21
TORSDOF 4
