REMARK VINA RESULT:      -5.8     26.376     28.641
REMARK  Name = ZINC000000623135
REMARK                            x       y       z     vdW  Elec       q    Type
REMARK                         _______ _______ _______ _____ _____    ______ ____
ROOT
ATOM      1  N   LIG    1       23.023  41.756 209.604  0.00  0.00    -0.299 N 
ATOM      2  H   LIG    1       22.617  42.008 208.697  0.00  0.00    +0.150 HD
ENDROOT
BRANCH   1   5
ATOM      3  C   LIG    1       25.712  42.788 210.547  0.00  0.00    +0.409 C 
ATOM      4  N   LIG    1       24.608  43.378 210.001  0.00  0.00    -0.212 N 
ATOM      5  C   LIG    1       23.282  42.917 210.397  0.00  0.00    +0.235 C 
ATOM      6  S   LIG    1       22.104  44.146 209.683  0.00  0.00    -0.086 S 
ATOM      7  C   LIG    1       23.391  44.899 208.799  0.00  0.00    +0.006 C 
ATOM      8  C   LIG    1       23.386  45.993 207.779  0.00  0.00    +0.044 C 
ATOM      9  C   LIG    1       24.916  46.327 207.732  0.00  0.00    +0.011 C 
ATOM     10  C   LIG    1       25.700  45.087 208.277  0.00  0.00    +0.052 C 
ATOM     11  C   LIG    1       24.600  44.429 209.048  0.00  0.00    +0.029 C 
ATOM     12  O   LIG    1       26.855  43.054 210.191  0.00  0.00    -0.226 OA
BRANCH   3  13
ATOM     13  O   LIG    1       25.465  41.894 211.534  0.00  0.00    -0.450 OA
BRANCH  13  15
ATOM     14  C   LIG    1       26.917  40.452 212.715  0.00  0.00    +0.048 C 
ATOM     15  C   LIG    1       26.264  41.834 212.737  0.00  0.00    +0.230 C 
ENDBRANCH  13  15
ENDBRANCH   3  13
ENDBRANCH   1   5
BRANCH   1  16
ATOM     16  C   LIG    1       22.376  40.719 210.210  0.00  0.00    +0.136 C 
ATOM     17  S   LIG    1       23.114  39.316 210.748  0.00  0.00    -0.018 S 
BRANCH  16  18
ATOM     18  N   LIG    1       21.017  40.932 210.372  0.00  0.00    -0.297 N 
ATOM     19  H   LIG    1       20.779  41.837 210.796  0.00  0.00    +0.154 HD
BRANCH  18  20
ATOM     20  C   LIG    1       19.973  40.174 209.800  0.00  0.00    +0.033 A 
ATOM     21  C   LIG    1       19.615  40.355 208.460  0.00  0.00    +0.027 A 
ATOM     22  C   LIG    1       18.577  39.603 207.923  0.00  0.00    +0.047 A 
ATOM     23  C   LIG    1       17.912  38.673 208.720  0.00  0.00    +0.120 A 
ATOM     24  C   LIG    1       18.277  38.483 210.057  0.00  0.00    +0.047 A 
ATOM     25  C   LIG    1       19.314  39.237 210.597  0.00  0.00    +0.027 A 
BRANCH  23  26
ATOM     26  O   LIG    1       16.887  37.959 208.132  0.00  0.00    -0.495 OA
ATOM     27  C   LIG    1       16.936  36.552 207.803  0.00  0.00    +0.277 C 
ENDBRANCH  23  26
ENDBRANCH  18  20
ENDBRANCH  16  18
ENDBRANCH   1  16
TORSDOF 7
