REMARK VINA RESULT:      -7.1      0.000      0.000
REMARK  Name = ZINC000000538627
REMARK                            x       y       z     vdW  Elec       q    Type
REMARK                         _______ _______ _______ _____ _____    ______ ____
ROOT
ATOM      1  C   LIG    1       28.446  25.082 206.421  0.00  0.00    +0.166 C 
ENDROOT
BRANCH   1   2
ATOM      2  C   LIG    1       27.186  25.688 205.763  0.00  0.00    -0.007 A 
ATOM      3  C   LIG    1       26.766  27.014 205.947  0.00  0.00    +0.007 A 
ATOM      4  C   LIG    1       25.613  27.485 205.326  0.00  0.00    +0.000 A 
ATOM      5  C   LIG    1       24.861  26.643 204.514  0.00  0.00    +0.000 A 
ATOM      6  C   LIG    1       25.263  25.328 204.324  0.00  0.00    +0.000 A 
ATOM      7  C   LIG    1       26.416  24.855 204.945  0.00  0.00    +0.007 A 
ENDBRANCH   1   2
BRANCH   1   8
ATOM      8  C   LIG    1       28.640  25.734 207.808  0.00  0.00    -0.007 A 
ATOM      9  C   LIG    1       27.540  26.090 208.598  0.00  0.00    +0.007 A 
ATOM     10  C   LIG    1       27.720  26.703 209.834  0.00  0.00    +0.000 A 
ATOM     11  C   LIG    1       29.002  26.970 210.300  0.00  0.00    +0.000 A 
ATOM     12  C   LIG    1       30.104  26.618 209.531  0.00  0.00    +0.000 A 
ATOM     13  C   LIG    1       29.925  26.005 208.295  0.00  0.00    +0.007 A 
ENDBRANCH   1   8
BRANCH   1  15
ATOM     14  C   LIG    1       29.387  26.293 204.391  0.00  0.00    +0.195 C 
ATOM     15  O   LIG    1       29.604  25.445 205.562  0.00  0.00    -0.363 OA
ENDBRANCH   1  15
BRANCH   1  16
ATOM     16  C   LIG    1       28.368  23.535 206.573  0.00  0.00    +0.325 C 
BRANCH  16  17
ATOM     17  C   LIG    1       29.303  22.902 205.558  0.00  0.00    +0.350 C 
ATOM     18  O   LIG    1       28.908  22.416 204.503  0.00  0.00    -0.247 OA
BRANCH  17  19
ATOM     19  O   LIG    1       30.636  22.798 205.832  0.00  0.00    -0.478 OA
ATOM     20  H   LIG    1       31.062  22.180 205.233  0.00  0.00    +0.295 HD
ENDBRANCH  17  19
ENDBRANCH  16  17
BRANCH  16  21
ATOM     21  O   LIG    1       28.808  23.131 207.928  0.00  0.00    -0.444 OA
BRANCH  21  22
ATOM     22  C   LIG    1       28.175  22.157 208.613  0.00  0.00    +0.319 A 
ATOM     23  N   LIG    1       28.726  20.947 208.659  0.00  0.00    -0.200 NA
ATOM     24  C   LIG    1       28.105  20.007 209.348  0.00  0.00    +0.045 A 
ATOM     25  C   LIG    1       28.728  18.634 209.405  0.00  0.00    +0.066 C 
ATOM     26  C   LIG    1       26.905  20.296 209.979  0.00  0.00    +0.046 A 
ATOM     27  C   LIG    1       26.382  21.578 209.880  0.00  0.00    +0.045 A 
ATOM     28  C   LIG    1       25.088  21.964 210.552  0.00  0.00    +0.066 C 
ATOM     29  N   LIG    1       27.033  22.500 209.194  0.00  0.00    -0.200 NA
ENDBRANCH  21  22
ENDBRANCH  16  21
ENDBRANCH   1  16
TORSDOF 8
