REMARK VINA RESULT:      -7.2      4.277      9.005
REMARK  Name = ZINC000009527204
REMARK                            x       y       z     vdW  Elec       q    Type
REMARK                         _______ _______ _______ _____ _____    ______ ____
ROOT
ATOM      1  O   LIG    1       23.044  42.820 191.039  0.00  0.00    -0.267 OA
ATOM      2  C   LIG    1       22.764  43.724 190.252  0.00  0.00    +0.282 C 
ATOM      3  N   LIG    1       23.608  43.876 189.158  0.00  0.00    -0.292 N 
ATOM      4  C   LIG    1       23.107  44.266 187.815  0.00  0.00    +0.127 C 
ATOM      5  C   LIG    1       22.921  42.955 187.008  0.00  0.00    +0.127 C 
ATOM      6  N   LIG    1       24.240  42.273 186.974  0.00  0.00    -0.294 N 
ATOM      7  C   LIG    1       25.149  42.543 185.956  0.00  0.00    +0.253 C 
ATOM      8  O   LIG    1       26.332  42.637 186.276  0.00  0.00    -0.269 OA
ATOM      9  C   LIG    1       24.733  41.882 188.324  0.00  0.00    +0.127 C 
ATOM     10  C   LIG    1       24.930  43.192 189.124  0.00  0.00    +0.127 C 
ENDROOT
BRANCH   7  11
ATOM     11  C   LIG    1       24.685  42.723 184.591  0.00  0.00    +0.075 A 
ATOM     12  S   LIG    1       25.532  42.002 183.256  0.00  0.00    -0.083 S 
ATOM     13  C   LIG    1       24.407  42.669 182.127  0.00  0.00    +0.024 A 
ATOM     14  C   LIG    1       24.455  42.540 180.691  0.00  0.00    -0.001 A 
ATOM     15  C   LIG    1       23.645  43.359 179.952  0.00  0.00    -0.002 A 
ATOM     16  C   LIG    1       22.767  44.446 180.555  0.00  0.00    +0.048 C 
ATOM     17  C   LIG    1       22.269  43.986 181.956  0.00  0.00    +0.041 C 
ATOM     18  S   LIG    1       23.813  43.076 178.256  0.00  0.00    -0.101 S 
ATOM     19  C   LIG    1       24.989  41.843 178.554  0.00  0.00    +0.046 A 
ATOM     20  C   LIG    1       25.226  41.674 179.887  0.00  0.00    +0.017 A 
ATOM     21  C   LIG    1       23.422  43.387 182.759  0.00  0.00    -0.032 A 
ATOM     22  C   LIG    1       23.576  43.417 184.147  0.00  0.00    +0.025 A 
ENDBRANCH   7  11
BRANCH   2  23
ATOM     23  C   LIG    1       21.593  44.578 190.458  0.00  0.00    +0.189 A 
ATOM     24  O   LIG    1       20.540  44.661 189.568  0.00  0.00    -0.458 OA
ATOM     25  C   LIG    1       19.655  45.556 190.056  0.00  0.00    +0.196 A 
ATOM     26  C   LIG    1       20.111  46.051 191.230  0.00  0.00    +0.042 A 
ATOM     27  C   LIG    1       21.337  45.438 191.486  0.00  0.00    +0.054 A 
ENDBRANCH   2  23
TORSDOF 2
