REMARK VINA RESULT:      -6.9      4.175      5.638
REMARK  Name = ZINC000078751741
REMARK                            x       y       z     vdW  Elec       q    Type
REMARK                         _______ _______ _______ _____ _____    ______ ____
ROOT
ATOM      1  S   LIG    1       22.871  45.379 183.645  0.00  0.00    +0.073 S 
ATOM      2  O   LIG    1       21.694  44.729 184.093  0.00  0.00    -0.150 OA
ATOM      3  O   LIG    1       22.852  45.945 182.346  0.00  0.00    -0.150 OA
ENDROOT
BRANCH   1   6
ATOM      4  C   LIG    1       23.470  42.962 185.895  0.00  0.00    +0.053 C 
ATOM      5  C   LIG    1       24.387  43.250 184.725  0.00  0.00    +0.014 A 
ATOM      6  C   LIG    1       24.240  44.217 183.755  0.00  0.00    +0.119 A 
ATOM      7  C   LIG    1       25.299  44.198 182.830  0.00  0.00    +0.051 A 
ATOM      8  C   LIG    1       26.235  43.218 183.074  0.00  0.00    +0.098 A 
ATOM      9  S   LIG    1       25.816  42.313 184.489  0.00  0.00    -0.085 S 
BRANCH   8  10
ATOM     10  C   LIG    1       27.422  42.924 182.296  0.00  0.00    +0.344 C 
ATOM     11  O   LIG    1       27.863  43.623 181.407  0.00  0.00    -0.245 OA
BRANCH  10  12
ATOM     12  O   LIG    1       28.089  41.807 182.560  0.00  0.00    -0.477 OA
ATOM     13  H   LIG    1       27.429  41.093 182.576  0.00  0.00    +0.295 HD
ENDBRANCH  10  12
ENDBRANCH   8  10
ENDBRANCH   1   6
BRANCH   1  14
ATOM     14  N   LIG    1       23.242  46.581 184.719  0.00  0.00    -0.213 N 
ATOM     15  H   LIG    1       23.303  47.368 184.061  0.00  0.00    +0.174 HD
BRANCH  14  16
ATOM     16  C   LIG    1       22.230  46.821 185.659  0.00  0.00    +0.084 A 
ATOM     17  C   LIG    1       21.164  47.674 185.361  0.00  0.00    +0.146 A 
ATOM     18  F   LIG    1       21.125  48.299 184.164  0.00  0.00    -0.204 F 
ATOM     19  C   LIG    1       20.140  47.895 186.269  0.00  0.00    +0.041 A 
ATOM     20  C   LIG    1       20.186  47.259 187.511  0.00  0.00    +0.015 A 
ATOM     21  C   LIG    1       21.258  46.411 187.845  0.00  0.00    +0.057 A 
ATOM     22  C   LIG    1       22.291  46.216 186.915  0.00  0.00    +0.039 A 
BRANCH  21  23
ATOM     23  C   LIG    1       21.330  45.719 189.215  0.00  0.00    +0.417 C 
ATOM     24  F   LIG    1       20.452  44.705 189.285  0.00  0.00    -0.166 F 
ATOM     25  F   LIG    1       21.046  46.613 190.173  0.00  0.00    -0.166 F 
ATOM     26  F   LIG    1       22.572  45.238 189.419  0.00  0.00    -0.166 F 
ENDBRANCH  21  23
ENDBRANCH  14  16
ENDBRANCH   1  14
TORSDOF 6
