REMARK VINA RESULT:      -8.5     29.304     30.603
REMARK  Name = ZINC000049421769
REMARK                            x       y       z     vdW  Elec       q    Type
REMARK                         _______ _______ _______ _____ _____    ______ ____
ROOT
ATOM      1  C   LIG    1       40.304  19.272 186.545  0.00  0.00    +0.088 C 
ATOM      2  C   LIG    1       38.842  19.426 186.191  0.00  0.00    +0.135 A 
ATOM      3  N   LIG    1       37.778  18.897 186.838  0.00  0.00    -0.276 N 
ATOM      4  C   LIG    1       37.639  18.061 188.003  0.00  0.00    +0.075 A 
ATOM      5  C   LIG    1       38.730  17.551 188.727  0.00  0.00    +0.028 A 
ATOM      6  C   LIG    1       38.496  16.768 189.849  0.00  0.00    +0.002 A 
ATOM      7  C   LIG    1       37.188  16.490 190.252  0.00  0.00    +0.002 A 
ATOM      8  C   LIG    1       36.112  16.987 189.531  0.00  0.00    +0.030 A 
ATOM      9  C   LIG    1       36.317  17.772 188.390  0.00  0.00    +0.089 A 
ATOM     10  N   LIG    1       35.206  18.229 187.685  0.00  0.00    -0.235 NA
ATOM     11  C   LIG    1       35.383  18.961 186.634  0.00  0.00    +0.143 A 
ATOM     12  C   LIG    1       36.695  19.324 186.164  0.00  0.00    +0.194 A 
ATOM     13  N   LIG    1       37.066  20.066 185.151  0.00  0.00    -0.127 NA
ATOM     14  N   LIG    1       38.420  20.123 185.181  0.00  0.00    -0.134 NA
ENDROOT
BRANCH  11  15
ATOM     15  S   LIG    1       33.983  19.534 185.768  0.00  0.00    -0.093 S 
BRANCH  15  16
ATOM     16  C   LIG    1       32.602  18.563 186.501  0.00  0.00    +0.172 C 
BRANCH  16  17
ATOM     17  C   LIG    1       31.480  18.596 185.481  0.00  0.00    +0.227 C 
ATOM     18  N   LIG    1       30.912  17.397 185.141  0.00  0.00    -0.284 N 
ATOM     19  H   LIG    1       31.363  16.551 185.515  0.00  0.00    +0.155 HD
ATOM     20  O   LIG    1       31.103  19.624 184.958  0.00  0.00    -0.275 OA
BRANCH  18  21
ATOM     21  C   LIG    1       29.903  17.215 184.167  0.00  0.00    +0.039 A 
ATOM     22  C   LIG    1       30.299  17.082 182.827  0.00  0.00    -0.029 A 
ATOM     23  C   LIG    1       31.757  17.177 182.407  0.00  0.00    +0.045 C 
ATOM     24  C   LIG    1       29.318  16.882 181.860  0.00  0.00    +0.005 A 
ATOM     25  C   LIG    1       27.975  16.814 182.218  0.00  0.00    +0.001 A 
ATOM     26  C   LIG    1       27.596  16.944 183.551  0.00  0.00    +0.005 A 
ATOM     27  C   LIG    1       28.553  17.139 184.544  0.00  0.00    -0.029 A 
ATOM     28  C   LIG    1       28.101  17.267 185.989  0.00  0.00    +0.045 C 
ENDBRANCH  18  21
ENDBRANCH  16  17
ENDBRANCH  15  16
ENDBRANCH  11  15
TORSDOF 4
