REMARK VINA RESULT:      -6.5     29.935     31.273
REMARK  Name = ZINC000000623134
REMARK                            x       y       z     vdW  Elec       q    Type
REMARK                         _______ _______ _______ _____ _____    ______ ____
ROOT
ATOM      1  N   LIG    1       26.518  14.623 197.034  0.00  0.00    -0.299 N 
ATOM      2  H   LIG    1       26.488  14.007 196.214  0.00  0.00    +0.150 HD
ENDROOT
BRANCH   1   5
ATOM      3  C   LIG    1       23.858  15.480 198.193  0.00  0.00    +0.409 C 
ATOM      4  N   LIG    1       24.359  15.468 196.924  0.00  0.00    -0.212 N 
ATOM      5  C   LIG    1       25.766  15.811 196.746  0.00  0.00    +0.235 C 
ATOM      6  S   LIG    1       26.006  15.993 194.929  0.00  0.00    -0.086 S 
ATOM      7  C   LIG    1       24.391  15.436 194.634  0.00  0.00    +0.006 C 
ATOM      8  C   LIG    1       23.647  15.202 193.358  0.00  0.00    +0.044 C 
ATOM      9  C   LIG    1       22.409  14.417 193.910  0.00  0.00    +0.011 C 
ATOM     10  C   LIG    1       22.262  14.759 195.430  0.00  0.00    +0.052 C 
ATOM     11  C   LIG    1       23.662  15.206 195.712  0.00  0.00    +0.029 C 
ATOM     12  O   LIG    1       24.548  15.782 199.166  0.00  0.00    -0.226 OA
BRANCH   3  13
ATOM     13  O   LIG    1       22.557  15.157 198.325  0.00  0.00    -0.450 OA
BRANCH  13  15
ATOM     14  C   LIG    1       21.088  15.393 200.145  0.00  0.00    +0.048 C 
ATOM     15  C   LIG    1       22.094  14.448 199.492  0.00  0.00    +0.230 C 
ENDBRANCH  13  15
ENDBRANCH   3  13
ENDBRANCH   1   5
BRANCH   1  16
ATOM     16  C   LIG    1       27.795  14.792 197.490  0.00  0.00    +0.136 C 
ATOM     17  S   LIG    1       28.157  15.868 198.721  0.00  0.00    -0.018 S 
BRANCH  16  18
ATOM     18  N   LIG    1       28.703  14.026 196.776  0.00  0.00    -0.297 N 
ATOM     19  H   LIG    1       28.398  13.052 196.590  0.00  0.00    +0.154 HD
BRANCH  18  20
ATOM     20  C   LIG    1       29.810  14.498 196.046  0.00  0.00    +0.033 A 
ATOM     21  C   LIG    1       31.079  14.295 196.593  0.00  0.00    +0.027 A 
ATOM     22  C   LIG    1       32.202  14.766 195.922  0.00  0.00    +0.047 A 
ATOM     23  C   LIG    1       32.045  15.443 194.709  0.00  0.00    +0.120 A 
ATOM     24  C   LIG    1       30.778  15.653 194.167  0.00  0.00    +0.047 A 
ATOM     25  C   LIG    1       29.654  15.184 194.837  0.00  0.00    +0.027 A 
BRANCH  23  26
ATOM     26  O   LIG    1       33.123  15.933 193.997  0.00  0.00    -0.495 OA
ATOM     27  C   LIG    1       34.499  15.859 194.430  0.00  0.00    +0.277 C 
ENDBRANCH  23  26
ENDBRANCH  18  20
ENDBRANCH  16  18
ENDBRANCH   1  16
TORSDOF 7
