MODEL 1
REMARK VINA RESULT:      -8.4      0.000      0.000
REMARK  Name = ZINC000049420917
REMARK                            x       y       z     vdW  Elec       q    Type
REMARK                         _______ _______ _______ _____ _____    ______ ____
ROOT
ATOM      1  N   LIG    1       27.938  24.508 208.784  0.00  0.00    -0.205 N 
ATOM      2  C   LIG    1       28.514  23.287 208.354  0.00  0.00    +0.160 A 
ATOM      3  N   LIG    1       28.213  22.180 209.048  0.00  0.00    -0.238 NA
ATOM      4  C   LIG    1       28.743  21.016 208.678  0.00  0.00    +0.113 A 
ATOM      5  C   LIG    1       29.598  20.913 207.582  0.00  0.00    +0.022 A 
ATOM      6  C   LIG    1       29.913  22.052 206.849  0.00  0.00    +0.034 A 
ATOM      7  C   LIG    1       29.363  23.261 207.256  0.00  0.00    +0.149 A 
ATOM      8  S   LIG    1       29.571  24.806 206.437  0.00  0.00    +0.082 S 
ATOM      9  O   LIG    1       30.539  25.575 207.123  0.00  0.00    -0.150 OA
ATOM     10  O   LIG    1       29.802  24.574 205.058  0.00  0.00    -0.150 OA
ATOM     11  N   LIG    1       28.105  25.514 206.626  0.00  0.00    -0.150 N 
ATOM     12  C   LIG    1       27.779  25.619 207.943  0.00  0.00    +0.334 C 
ATOM     13  O   LIG    1       27.335  26.676 208.382  0.00  0.00    -0.250 OA
ENDROOT
BRANCH   1  18
ATOM     14  C   LIG    1       26.344  25.040 214.243  0.00  0.00    +0.044 C 
ATOM     15  C   LIG    1       26.763  24.908 212.795  0.00  0.00    -0.050 A 
ATOM     16  C   LIG    1       28.093  25.121 212.428  0.00  0.00    +0.005 A 
ATOM     17  C   LIG    1       28.488  24.990 211.101  0.00  0.00    +0.024 A 
ATOM     18  C   LIG    1       27.539  24.640 210.142  0.00  0.00    +0.044 A 
ATOM     19  C   LIG    1       26.208  24.418 210.492  0.00  0.00    +0.024 A 
ATOM     20  C   LIG    1       25.825  24.552 211.823  0.00  0.00    +0.005 A 
ENDBRANCH   1  18
BRANCH  11  21
ATOM     21  C   LIG    1       27.883  26.653 205.739  0.00  0.00    +0.171 C 
BRANCH  21  22
ATOM     22  C   LIG    1       26.491  26.411 205.188  0.00  0.00    -0.028 A 
ATOM     23  C   LIG    1       26.217  25.238 204.476  0.00  0.00    +0.008 A 
ATOM     24  C   LIG    1       24.940  25.006 203.972  0.00  0.00    +0.038 A 
ATOM     25  C   LIG    1       23.952  25.955 204.195  0.00  0.00    +0.123 A 
ATOM     26  F   LIG    1       22.709  25.733 203.706  0.00  0.00    -0.205 F 
ATOM     27  C   LIG    1       24.196  27.123 204.904  0.00  0.00    +0.038 A 
ATOM     28  C   LIG    1       25.476  27.348 205.404  0.00  0.00    +0.008 A 
ENDBRANCH  21  22
ENDBRANCH  11  21
TORSDOF 3
ENDMDL
MODEL 2
REMARK VINA RESULT:      -8.3     28.552     32.320
REMARK  Name = ZINC000049420917
REMARK                            x       y       z     vdW  Elec       q    Type
REMARK                         _______ _______ _______ _____ _____    ______ ____
ROOT
ATOM      1  N   LIG    1       24.525  42.779 180.868  0.00  0.00    -0.205 N 
ATOM      2  C   LIG    1       24.547  44.191 180.757  0.00  0.00    +0.160 A 
ATOM      3  N   LIG    1       23.572  44.773 180.044  0.00  0.00    -0.238 NA
ATOM      4  C   LIG    1       23.566  46.099 179.910  0.00  0.00    +0.113 A 
ATOM      5  C   LIG    1       24.541  46.900 180.499  0.00  0.00    +0.022 A 
ATOM      6  C   LIG    1       25.554  46.311 181.248  0.00  0.00    +0.034 A 
ATOM      7  C   LIG    1       25.555  44.927 181.366  0.00  0.00    +0.149 A 
ATOM      8  S   LIG    1       26.696  43.982 182.318  0.00  0.00    +0.082 S 
ATOM      9  O   LIG    1       27.670  43.421 181.462  0.00  0.00    -0.150 OA
ATOM     10  O   LIG    1       27.171  44.774 183.394  0.00  0.00    -0.150 OA
ATOM     11  N   LIG    1       25.758  42.776 182.911  0.00  0.00    -0.150 N 
ATOM     12  C   LIG    1       25.160  42.081 181.906  0.00  0.00    +0.334 C 
ATOM     13  O   LIG    1       25.168  40.854 181.919  0.00  0.00    -0.250 OA
ENDROOT
BRANCH   1  18
ATOM     14  C   LIG    1       21.876  39.727 176.831  0.00  0.00    +0.044 C 
ATOM     15  C   LIG    1       22.575  40.544 177.897  0.00  0.00    -0.050 A 
ATOM     16  C   LIG    1       21.968  40.743 179.138  0.00  0.00    +0.005 A 
ATOM     17  C   LIG    1       22.609  41.483 180.126  0.00  0.00    +0.024 A 
ATOM     18  C   LIG    1       23.868  42.020 179.862  0.00  0.00    +0.044 A 
ATOM     19  C   LIG    1       24.490  41.826 178.630  0.00  0.00    +0.024 A 
ATOM     20  C   LIG    1       23.839  41.085 177.649  0.00  0.00    +0.005 A 
ENDBRANCH   1  18
BRANCH  11  21
ATOM     21  C   LIG    1       26.367  42.048 184.022  0.00  0.00    +0.171 C 
BRANCH  21  22
ATOM     22  C   LIG    1       25.360  42.200 185.144  0.00  0.00    -0.028 A 
ATOM     23  C   LIG    1       25.549  41.513 186.349  0.00  0.00    +0.008 A 
ATOM     24  C   LIG    1       24.630  41.652 187.386  0.00  0.00    +0.038 A 
ATOM     25  C   LIG    1       23.535  42.484 187.201  0.00  0.00    +0.123 A 
ATOM     26  F   LIG    1       22.639  42.620 188.208  0.00  0.00    -0.205 F 
ATOM     27  C   LIG    1       23.328  43.181 186.019  0.00  0.00    +0.038 A 
ATOM     28  C   LIG    1       24.250  43.036 184.986  0.00  0.00    +0.008 A 
ENDBRANCH  21  22
ENDBRANCH  11  21
TORSDOF 3
ENDMDL
MODEL 3
REMARK VINA RESULT:      -8.0     29.331     32.854
REMARK  Name = ZINC000049420917
REMARK                            x       y       z     vdW  Elec       q    Type
REMARK                         _______ _______ _______ _____ _____    ______ ____
ROOT
ATOM      1  N   LIG    1       25.695  44.668 181.084  0.00  0.00    -0.205 N 
ATOM      2  C   LIG    1       25.194  43.629 180.263  0.00  0.00    +0.160 A 
ATOM      3  N   LIG    1       26.013  43.130 179.325  0.00  0.00    -0.238 NA
ATOM      4  C   LIG    1       25.573  42.158 178.527  0.00  0.00    +0.113 A 
ATOM      5  C   LIG    1       24.286  41.637 178.646  0.00  0.00    +0.022 A 
ATOM      6  C   LIG    1       23.429  42.139 179.618  0.00  0.00    +0.034 A 
ATOM      7  C   LIG    1       23.897  43.162 180.433  0.00  0.00    +0.149 A 
ATOM      8  S   LIG    1       23.011  43.895 181.767  0.00  0.00    +0.082 S 
ATOM      9  O   LIG    1       22.474  45.134 181.350  0.00  0.00    -0.150 OA
ATOM     10  O   LIG    1       22.097  42.948 182.293  0.00  0.00    -0.150 OA
ATOM     11  N   LIG    1       24.190  44.176 182.870  0.00  0.00    -0.150 N 
ATOM     12  C   LIG    1       25.169  44.965 182.351  0.00  0.00    +0.334 C 
ATOM     13  O   LIG    1       25.595  45.919 182.995  0.00  0.00    -0.250 OA
ENDROOT
BRANCH   1  18
ATOM     14  C   LIG    1       29.934  47.951 179.115  0.00  0.00    +0.044 C 
ATOM     15  C   LIG    1       28.811  47.086 179.645  0.00  0.00    -0.050 A 
ATOM     16  C   LIG    1       27.486  47.380 179.319  0.00  0.00    +0.005 A 
ATOM     17  C   LIG    1       26.449  46.582 179.793  0.00  0.00    +0.024 A 
ATOM     18  C   LIG    1       26.751  45.483 180.596  0.00  0.00    +0.044 A 
ATOM     19  C   LIG    1       28.069  45.173 180.926  0.00  0.00    +0.024 A 
ATOM     20  C   LIG    1       29.097  45.978 180.447  0.00  0.00    +0.005 A 
ENDBRANCH   1  18
BRANCH  11  21
ATOM     21  C   LIG    1       23.685  44.451 184.214  0.00  0.00    +0.171 C 
BRANCH  21  22
ATOM     22  C   LIG    1       24.199  43.285 185.034  0.00  0.00    -0.028 A 
ATOM     23  C   LIG    1       23.504  42.877 186.178  0.00  0.00    +0.008 A 
ATOM     24  C   LIG    1       23.967  41.803 186.934  0.00  0.00    +0.038 A 
ATOM     25  C   LIG    1       25.122  41.149 186.527  0.00  0.00    +0.123 A 
ATOM     26  F   LIG    1       25.576  40.104 187.259  0.00  0.00    -0.205 F 
ATOM     27  C   LIG    1       25.826  41.529 185.393  0.00  0.00    +0.038 A 
ATOM     28  C   LIG    1       25.357  42.605 184.643  0.00  0.00    +0.008 A 
ENDBRANCH  21  22
ENDBRANCH  11  21
TORSDOF 3
ENDMDL
MODEL 4
REMARK VINA RESULT:      -7.8     28.524     31.896
REMARK  Name = ZINC000049420917
REMARK                            x       y       z     vdW  Elec       q    Type
REMARK                         _______ _______ _______ _____ _____    ______ ____
ROOT
ATOM      1  N   LIG    1       23.951  44.162 183.281  0.00  0.00    -0.205 N 
ATOM      2  C   LIG    1       24.246  43.324 184.384  0.00  0.00    +0.160 A 
ATOM      3  N   LIG    1       23.374  43.309 185.403  0.00  0.00    -0.238 NA
ATOM      4  C   LIG    1       23.624  42.539 186.461  0.00  0.00    +0.113 A 
ATOM      5  C   LIG    1       24.764  41.742 186.537  0.00  0.00    +0.022 A 
ATOM      6  C   LIG    1       25.673  41.743 185.485  0.00  0.00    +0.034 A 
ATOM      7  C   LIG    1       25.406  42.560 184.394  0.00  0.00    +0.149 A 
ATOM      8  S   LIG    1       26.379  42.664 182.930  0.00  0.00    +0.082 S 
ATOM      9  O   LIG    1       27.184  43.825 182.983  0.00  0.00    -0.150 OA
ATOM     10  O   LIG    1       27.049  41.432 182.729  0.00  0.00    -0.150 OA
ATOM     11  N   LIG    1       25.249  42.860 181.760  0.00  0.00    -0.150 N 
ATOM     12  C   LIG    1       24.481  43.957 181.998  0.00  0.00    +0.334 C 
ATOM     13  O   LIG    1       24.247  44.751 181.092  0.00  0.00    -0.250 OA
ENDROOT
BRANCH   1  18
ATOM     14  C   LIG    1       20.588  48.709 184.085  0.00  0.00    +0.044 C 
ATOM     15  C   LIG    1       21.480  47.506 183.863  0.00  0.00    -0.050 A 
ATOM     16  C   LIG    1       22.848  47.590 184.125  0.00  0.00    +0.005 A 
ATOM     17  C   LIG    1       23.672  46.485 183.934  0.00  0.00    +0.024 A 
ATOM     18  C   LIG    1       23.112  45.292 183.480  0.00  0.00    +0.044 A 
ATOM     19  C   LIG    1       21.747  45.190 183.219  0.00  0.00    +0.024 A 
ATOM     20  C   LIG    1       20.933  46.302 183.413  0.00  0.00    +0.005 A 
ENDBRANCH   1  18
BRANCH  11  21
ATOM     21  C   LIG    1       25.752  42.616 180.409  0.00  0.00    +0.171 C 
BRANCH  21  22
ATOM     22  C   LIG    1       24.639  41.825 179.751  0.00  0.00    -0.028 A 
ATOM     23  C   LIG    1       23.973  40.827 180.470  0.00  0.00    +0.008 A 
ATOM     24  C   LIG    1       22.946  40.100 179.873  0.00  0.00    +0.038 A 
ATOM     25  C   LIG    1       22.598  40.390 178.561  0.00  0.00    +0.123 A 
ATOM     26  F   LIG    1       21.601  39.684 177.977  0.00  0.00    -0.205 F 
ATOM     27  C   LIG    1       23.239  41.380 177.828  0.00  0.00    +0.038 A 
ATOM     28  C   LIG    1       24.265  42.101 178.431  0.00  0.00    +0.008 A 
ENDBRANCH  21  22
ENDBRANCH  11  21
TORSDOF 3
ENDMDL
MODEL 5
REMARK VINA RESULT:      -7.6     17.036     19.465
REMARK  Name = ZINC000049420917
REMARK                            x       y       z     vdW  Elec       q    Type
REMARK                         _______ _______ _______ _____ _____    ______ ____
ROOT
ATOM      1  N   LIG    1       23.404  43.363 210.350  0.00  0.00    -0.205 N 
ATOM      2  C   LIG    1       23.046  43.666 211.686  0.00  0.00    +0.160 A 
ATOM      3  N   LIG    1       22.791  44.948 211.986  0.00  0.00    -0.238 NA
ATOM      4  C   LIG    1       22.461  45.270 213.236  0.00  0.00    +0.113 A 
ATOM      5  C   LIG    1       22.364  44.311 214.241  0.00  0.00    +0.022 A 
ATOM      6  C   LIG    1       22.619  42.977 213.943  0.00  0.00    +0.034 A 
ATOM      7  C   LIG    1       22.976  42.658 212.639  0.00  0.00    +0.149 A 
ATOM      8  S   LIG    1       23.273  41.033 212.028  0.00  0.00    +0.082 S 
ATOM      9  O   LIG    1       24.666  40.810 211.945  0.00  0.00    -0.150 OA
ATOM     10  O   LIG    1       22.523  40.104 212.792  0.00  0.00    -0.150 OA
ATOM     11  N   LIG    1       22.659  41.102 210.510  0.00  0.00    -0.150 N 
ATOM     12  C   LIG    1       23.253  42.088 209.785  0.00  0.00    +0.334 C 
ATOM     13  O   LIG    1       23.641  41.862 208.643  0.00  0.00    -0.250 OA
ENDROOT
BRANCH   1  18
ATOM     14  C   LIG    1       25.722  47.458 207.112  0.00  0.00    +0.044 C 
ATOM     15  C   LIG    1       25.107  46.379 207.977  0.00  0.00    -0.050 A 
ATOM     16  C   LIG    1       23.755  46.057 207.840  0.00  0.00    +0.005 A 
ATOM     17  C   LIG    1       23.186  45.059 208.623  0.00  0.00    +0.024 A 
ATOM     18  C   LIG    1       23.983  44.382 209.545  0.00  0.00    +0.044 A 
ATOM     19  C   LIG    1       25.335  44.688 209.690  0.00  0.00    +0.024 A 
ATOM     20  C   LIG    1       25.893  45.688 208.901  0.00  0.00    +0.005 A 
ENDBRANCH   1  18
BRANCH  11  21
ATOM     21  C   LIG    1       22.450  39.790 209.900  0.00  0.00    +0.171 C 
BRANCH  21  22
ATOM     22  C   LIG    1       20.975  39.790 209.551  0.00  0.00    -0.028 A 
ATOM     23  C   LIG    1       20.545  40.336 208.337  0.00  0.00    +0.008 A 
ATOM     24  C   LIG    1       19.192  40.334 208.007  0.00  0.00    +0.038 A 
ATOM     25  C   LIG    1       18.288  39.776 208.901  0.00  0.00    +0.123 A 
ATOM     26  F   LIG    1       16.971  39.773 208.584  0.00  0.00    -0.205 F 
ATOM     27  C   LIG    1       18.689  39.222 210.109  0.00  0.00    +0.038 A 
ATOM     28  C   LIG    1       20.043  39.229 210.432  0.00  0.00    +0.008 A 
ENDBRANCH  21  22
ENDBRANCH  11  21
TORSDOF 3
ENDMDL
MODEL 6
REMARK VINA RESULT:      -7.5     10.025     12.512
REMARK  Name = ZINC000049420917
REMARK                            x       y       z     vdW  Elec       q    Type
REMARK                         _______ _______ _______ _____ _____    ______ ____
ROOT
ATOM      1  N   LIG    1       30.516  18.807 199.512  0.00  0.00    -0.205 N 
ATOM      2  C   LIG    1       29.363  19.619 199.644  0.00  0.00    +0.160 A 
ATOM      3  N   LIG    1       29.545  20.906 199.974  0.00  0.00    -0.238 NA
ATOM      4  C   LIG    1       28.483  21.698 200.116  0.00  0.00    +0.113 A 
ATOM      5  C   LIG    1       27.186  21.228 199.921  0.00  0.00    +0.022 A 
ATOM      6  C   LIG    1       26.983  19.898 199.571  0.00  0.00    +0.034 A 
ATOM      7  C   LIG    1       28.099  19.081 199.441  0.00  0.00    +0.149 A 
ATOM      8  S   LIG    1       28.079  17.392 198.941  0.00  0.00    +0.082 S 
ATOM      9  O   LIG    1       28.212  16.564 200.079  0.00  0.00    -0.150 OA
ATOM     10  O   LIG    1       26.950  17.166 198.115  0.00  0.00    -0.150 OA
ATOM     11  N   LIG    1       29.441  17.269 198.038  0.00  0.00    -0.150 N 
ATOM     12  C   LIG    1       30.540  17.625 198.756  0.00  0.00    +0.334 C 
ATOM     13  O   LIG    1       31.545  16.922 198.729  0.00  0.00    -0.250 OA
ENDROOT
BRANCH   1  18
ATOM     14  C   LIG    1       35.274  20.284 202.306  0.00  0.00    +0.044 C 
ATOM     15  C   LIG    1       34.008  19.900 201.570  0.00  0.00    -0.050 A 
ATOM     16  C   LIG    1       33.814  20.309 200.249  0.00  0.00    +0.005 A 
ATOM     17  C   LIG    1       32.659  19.950 199.563  0.00  0.00    +0.024 A 
ATOM     18  C   LIG    1       31.699  19.173 200.210  0.00  0.00    +0.044 A 
ATOM     19  C   LIG    1       31.880  18.752 201.526  0.00  0.00    +0.024 A 
ATOM     20  C   LIG    1       33.039  19.118 202.202  0.00  0.00    +0.005 A 
ENDBRANCH   1  18
BRANCH  11  21
ATOM     21  C   LIG    1       29.487  16.070 197.204  0.00  0.00    +0.171 C 
BRANCH  21  22
ATOM     22  C   LIG    1       29.305  16.605 195.798  0.00  0.00    -0.028 A 
ATOM     23  C   LIG    1       29.331  15.727 194.708  0.00  0.00    +0.008 A 
ATOM     24  C   LIG    1       29.159  16.210 193.414  0.00  0.00    +0.038 A 
ATOM     25  C   LIG    1       28.958  17.571 193.231  0.00  0.00    +0.123 A 
ATOM     26  F   LIG    1       28.791  18.045 191.973  0.00  0.00    -0.205 F 
ATOM     27  C   LIG    1       28.922  18.463 194.294  0.00  0.00    +0.038 A 
ATOM     28  C   LIG    1       29.096  17.972 195.585  0.00  0.00    +0.008 A 
ENDBRANCH  21  22
ENDBRANCH  11  21
TORSDOF 3
ENDMDL
MODEL 7
REMARK VINA RESULT:      -7.5     29.008     32.528
REMARK  Name = ZINC000049420917
REMARK                            x       y       z     vdW  Elec       q    Type
REMARK                         _______ _______ _______ _____ _____    ______ ____
ROOT
ATOM      1  N   LIG    1       24.885  46.290 182.743  0.00  0.00    -0.205 N 
ATOM      2  C   LIG    1       26.264  46.264 182.419  0.00  0.00    +0.160 A 
ATOM      3  N   LIG    1       26.961  47.398 182.585  0.00  0.00    -0.238 NA
ATOM      4  C   LIG    1       28.258  47.413 182.282  0.00  0.00    +0.113 A 
ATOM      5  C   LIG    1       28.915  46.281 181.806  0.00  0.00    +0.022 A 
ATOM      6  C   LIG    1       28.206  45.097 181.636  0.00  0.00    +0.034 A 
ATOM      7  C   LIG    1       26.851  45.100 181.943  0.00  0.00    +0.149 A 
ATOM      8  S   LIG    1       25.782  43.702 181.870  0.00  0.00    +0.082 S 
ATOM      9  O   LIG    1       25.015  43.759 180.684  0.00  0.00    -0.150 OA
ATOM     10  O   LIG    1       26.542  42.524 182.081  0.00  0.00    -0.150 OA
ATOM     11  N   LIG    1       24.790  43.940 183.152  0.00  0.00    -0.150 N 
ATOM     12  C   LIG    1       24.150  45.137 183.060  0.00  0.00    +0.334 C 
ATOM     13  O   LIG    1       22.942  45.205 183.268  0.00  0.00    -0.250 OA
ENDROOT
BRANCH   1  18
ATOM     14  C   LIG    1       22.101  51.275 182.604  0.00  0.00    +0.044 C 
ATOM     15  C   LIG    1       22.847  49.958 182.639  0.00  0.00    -0.050 A 
ATOM     16  C   LIG    1       23.210  49.391 183.862  0.00  0.00    +0.005 A 
ATOM     17  C   LIG    1       23.886  48.176 183.902  0.00  0.00    +0.024 A 
ATOM     18  C   LIG    1       24.192  47.530 182.706  0.00  0.00    +0.044 A 
ATOM     19  C   LIG    1       23.832  48.080 181.477  0.00  0.00    +0.024 A 
ATOM     20  C   LIG    1       23.157  49.296 181.449  0.00  0.00    +0.005 A 
ENDBRANCH   1  18
BRANCH  11  21
ATOM     21  C   LIG    1       24.034  42.751 183.540  0.00  0.00    +0.171 C 
BRANCH  21  22
ATOM     22  C   LIG    1       24.354  42.590 185.013  0.00  0.00    -0.028 A 
ATOM     23  C   LIG    1       23.379  42.880 185.974  0.00  0.00    +0.008 A 
ATOM     24  C   LIG    1       23.664  42.728 187.329  0.00  0.00    +0.038 A 
ATOM     25  C   LIG    1       24.925  42.282 187.700  0.00  0.00    +0.123 A 
ATOM     26  F   LIG    1       25.205  42.134 189.017  0.00  0.00    -0.205 F 
ATOM     27  C   LIG    1       25.907  41.981 186.767  0.00  0.00    +0.038 A 
ATOM     28  C   LIG    1       25.615  42.136 185.415  0.00  0.00    +0.008 A 
ENDBRANCH  21  22
ENDBRANCH  11  21
TORSDOF 3
ENDMDL
MODEL 8
REMARK VINA RESULT:      -7.4     11.539     13.901
REMARK  Name = ZINC000049420917
REMARK                            x       y       z     vdW  Elec       q    Type
REMARK                         _______ _______ _______ _____ _____    ______ ____
ROOT
ATOM      1  N   LIG    1       25.955  15.501 197.834  0.00  0.00    -0.205 N 
ATOM      2  C   LIG    1       25.657  15.614 196.453  0.00  0.00    +0.160 A 
ATOM      3  N   LIG    1       24.376  15.812 196.108  0.00  0.00    -0.238 NA
ATOM      4  C   LIG    1       24.058  15.913 194.819  0.00  0.00    +0.113 A 
ATOM      5  C   LIG    1       25.021  15.829 193.816  0.00  0.00    +0.022 A 
ATOM      6  C   LIG    1       26.354  15.632 194.159  0.00  0.00    +0.034 A 
ATOM      7  C   LIG    1       26.668  15.514 195.507  0.00  0.00    +0.149 A 
ATOM      8  S   LIG    1       28.291  15.330 196.167  0.00  0.00    +0.082 S 
ATOM      9  O   LIG    1       28.513  13.974 196.498  0.00  0.00    -0.150 OA
ATOM     10  O   LIG    1       29.222  15.932 195.284  0.00  0.00    -0.150 OA
ATOM     11  N   LIG    1       28.217  16.205 197.551  0.00  0.00    -0.150 N 
ATOM     12  C   LIG    1       27.228  15.750 198.366  0.00  0.00    +0.334 C 
ATOM     13  O   LIG    1       27.450  15.573 199.560  0.00  0.00    -0.250 OA
ENDROOT
BRANCH   1  18
ATOM     14  C   LIG    1       21.847  13.797 201.419  0.00  0.00    +0.044 C 
ATOM     15  C   LIG    1       22.930  14.248 200.461  0.00  0.00    -0.050 A 
ATOM     16  C   LIG    1       23.236  15.605 200.339  0.00  0.00    +0.005 A 
ATOM     17  C   LIG    1       24.238  16.025 199.470  0.00  0.00    +0.024 A 
ATOM     18  C   LIG    1       24.933  15.075 198.725  0.00  0.00    +0.044 A 
ATOM     19  C   LIG    1       24.643  13.716 198.839  0.00  0.00    +0.024 A 
ATOM     20  C   LIG    1       23.639  13.307 199.712  0.00  0.00    +0.005 A 
ENDBRANCH   1  18
BRANCH  11  21
ATOM     21  C   LIG    1       29.526  16.520 198.118  0.00  0.00    +0.171 C 
BRANCH  21  22
ATOM     22  C   LIG    1       29.426  17.996 198.451  0.00  0.00    -0.028 A 
ATOM     23  C   LIG    1       28.856  18.881 197.530  0.00  0.00    +0.008 A 
ATOM     24  C   LIG    1       28.756  20.237 197.831  0.00  0.00    +0.038 A 
ATOM     25  C   LIG    1       29.225  20.685 199.057  0.00  0.00    +0.123 A 
ATOM     26  F   LIG    1       29.130  22.003 199.353  0.00  0.00    -0.205 F 
ATOM     27  C   LIG    1       29.789  19.827 199.992  0.00  0.00    +0.038 A 
ATOM     28  C   LIG    1       29.887  18.473 199.683  0.00  0.00    +0.008 A 
ENDBRANCH  21  22
ENDBRANCH  11  21
TORSDOF 3
ENDMDL
MODEL 9
REMARK VINA RESULT:      -7.4     11.640     14.373
REMARK  Name = ZINC000049420917
REMARK                            x       y       z     vdW  Elec       q    Type
REMARK                         _______ _______ _______ _____ _____    ______ ____
ROOT
ATOM      1  N   LIG    1       28.053  15.950 196.704  0.00  0.00    -0.205 N 
ATOM      2  C   LIG    1       29.190  15.867 195.864  0.00  0.00    +0.160 A 
ATOM      3  N   LIG    1       28.985  15.895 194.538  0.00  0.00    -0.238 NA
ATOM      4  C   LIG    1       30.031  15.810 193.717  0.00  0.00    +0.113 A 
ATOM      5  C   LIG    1       31.334  15.701 194.196  0.00  0.00    +0.022 A 
ATOM      6  C   LIG    1       31.562  15.679 195.568  0.00  0.00    +0.034 A 
ATOM      7  C   LIG    1       30.461  15.754 196.411  0.00  0.00    +0.149 A 
ATOM      8  S   LIG    1       30.522  15.812 198.171  0.00  0.00    +0.082 S 
ATOM      9  O   LIG    1       30.220  14.533 198.693  0.00  0.00    -0.150 OA
ATOM     10  O   LIG    1       31.750  16.392 198.574  0.00  0.00    -0.150 OA
ATOM     11  N   LIG    1       29.295  16.834 198.540  0.00  0.00    -0.150 N 
ATOM     12  C   LIG    1       28.114  16.384 198.037  0.00  0.00    +0.334 C 
ATOM     13  O   LIG    1       27.111  16.374 198.743  0.00  0.00    -0.250 OA
ENDROOT
BRANCH   1  18
ATOM     14  C   LIG    1       22.982  14.290 194.666  0.00  0.00    +0.044 C 
ATOM     15  C   LIG    1       24.330  14.724 195.199  0.00  0.00    -0.050 A 
ATOM     16  C   LIG    1       24.854  15.970 194.849  0.00  0.00    +0.005 A 
ATOM     17  C   LIG    1       26.086  16.381 195.345  0.00  0.00    +0.024 A 
ATOM     18  C   LIG    1       26.791  15.534 196.198  0.00  0.00    +0.044 A 
ATOM     19  C   LIG    1       26.280  14.289 196.562  0.00  0.00    +0.024 A 
ATOM     20  C   LIG    1       25.046  13.889 196.060  0.00  0.00    +0.005 A 
ENDBRANCH   1  18
BRANCH  11  21
ATOM     21  C   LIG    1       29.345  17.342 199.909  0.00  0.00    +0.171 C 
BRANCH  21  22
ATOM     22  C   LIG    1       29.475  18.842 199.730  0.00  0.00    -0.028 A 
ATOM     23  C   LIG    1       28.336  19.652 199.788  0.00  0.00    +0.008 A 
ATOM     24  C   LIG    1       28.448  21.031 199.630  0.00  0.00    +0.038 A 
ATOM     25  C   LIG    1       29.706  21.579 199.420  0.00  0.00    +0.123 A 
ATOM     26  F   LIG    1       29.819  22.920 199.265  0.00  0.00    -0.205 F 
ATOM     27  C   LIG    1       30.852  20.798 199.364  0.00  0.00    +0.038 A 
ATOM     28  C   LIG    1       30.731  19.420 199.522  0.00  0.00    +0.008 A 
ENDBRANCH  21  22
ENDBRANCH  11  21
TORSDOF 3
ENDMDL
