REMARK VINA RESULT:      -9.4      1.596      3.178
REMARK  Name = ZINC000006083766
REMARK                            x       y       z     vdW  Elec       q    Type
REMARK                         _______ _______ _______ _____ _____    ______ ____
ROOT
ATOM      1  O   LIG    1       31.272  17.558 184.660  0.00  0.00    -0.468 OA
ENDROOT
BRANCH   1   2
ATOM      2  C   LIG    1       30.288  17.225 183.788  0.00  0.00    +0.227 A 
ATOM      3  C   LIG    1       28.973  17.049 184.252  0.00  0.00    +0.073 A 
ATOM      4  C   LIG    1       28.394  17.150 185.550  0.00  0.00    -0.023 A 
ATOM      5  C   LIG    1       29.163  17.502 186.815  0.00  0.00    +0.037 C 
ATOM      6  C   LIG    1       28.149  17.845 187.923  0.00  0.00    +0.005 C 
ATOM      7  C   LIG    1       27.015  16.810 187.999  0.00  0.00    +0.005 C 
ATOM      8  C   LIG    1       26.132  16.865 186.741  0.00  0.00    +0.043 C 
ATOM      9  C   LIG    1       27.061  16.858 185.545  0.00  0.00    -0.004 A 
ATOM     10  S   LIG    1       26.465  16.478 183.960  0.00  0.00    -0.073 S 
ATOM     11  C   LIG    1       28.043  16.697 183.288  0.00  0.00    +0.116 A 
ATOM     12  N   LIG    1       28.366  16.541 181.981  0.00  0.00    -0.228 NA
ATOM     13  C   LIG    1       29.619  16.732 181.646  0.00  0.00    +0.226 A 
ATOM     14  N   LIG    1       30.604  17.072 182.520  0.00  0.00    -0.201 NA
ENDBRANCH   1   2
BRANCH   1  15
ATOM     15  C   LIG    1       32.264  18.586 184.373  0.00  0.00    +0.310 C 
BRANCH  15  17
ATOM     16  O   LIG    1       31.387  20.025 186.042  0.00  0.00    -0.288 OA
ATOM     17  C   LIG    1       32.387  19.505 185.584  0.00  0.00    +0.200 C 
BRANCH  17  18
ATOM     18  C   LIG    1       33.688  19.719 186.218  0.00  0.00    +0.025 A 
ATOM     19  C   LIG    1       34.167  18.862 187.230  0.00  0.00    +0.061 A 
ATOM     20  C   LIG    1       35.406  19.097 187.806  0.00  0.00    +0.163 A 
ATOM     21  O   LIG    1       35.874  18.236 188.776  0.00  0.00    -0.485 OA
ATOM     22  C   LIG    1       37.297  18.281 189.103  0.00  0.00    +0.270 C 
ATOM     23  C   LIG    1       37.670  19.761 189.285  0.00  0.00    +0.270 C 
ATOM     24  O   LIG    1       37.391  20.429 188.018  0.00  0.00    -0.485 OA
ATOM     25  C   LIG    1       36.182  20.190 187.410  0.00  0.00    +0.162 A 
ATOM     26  C   LIG    1       35.733  21.042 186.409  0.00  0.00    +0.050 A 
ATOM     27  C   LIG    1       34.494  20.807 185.820  0.00  0.00    +0.015 A 
ENDBRANCH  17  18
ENDBRANCH  15  17
ENDBRANCH   1  15
TORSDOF 4
