REMARK VINA RESULT:      -6.5     16.268     18.317
REMARK  Name = ZINC000000538627
REMARK                            x       y       z     vdW  Elec       q    Type
REMARK                         _______ _______ _______ _____ _____    ______ ____
ROOT
ATOM      1  C   LIG    1       18.691  40.171 211.271  0.00  0.00    +0.166 C 
ENDROOT
BRANCH   1   2
ATOM      2  C   LIG    1       18.656  39.671 212.733  0.00  0.00    -0.007 A 
ATOM      3  C   LIG    1       17.657  38.835 213.253  0.00  0.00    +0.007 A 
ATOM      4  C   LIG    1       17.690  38.432 214.584  0.00  0.00    +0.000 A 
ATOM      5  C   LIG    1       18.719  38.856 215.418  0.00  0.00    +0.000 A 
ATOM      6  C   LIG    1       19.715  39.684 214.919  0.00  0.00    +0.000 A 
ATOM      7  C   LIG    1       19.682  40.088 213.587  0.00  0.00    +0.007 A 
ENDBRANCH   1   2
BRANCH   1   8
ATOM      8  C   LIG    1       20.138  40.050 210.744  0.00  0.00    -0.007 A 
ATOM      9  C   LIG    1       20.898  38.898 210.979  0.00  0.00    +0.007 A 
ATOM     10  C   LIG    1       22.211  38.807 210.527  0.00  0.00    +0.000 A 
ATOM     11  C   LIG    1       22.784  39.864 209.831  0.00  0.00    +0.000 A 
ATOM     12  C   LIG    1       22.041  41.012 209.585  0.00  0.00    +0.000 A 
ATOM     13  C   LIG    1       20.729  41.105 210.036  0.00  0.00    +0.007 A 
ENDBRANCH   1   8
BRANCH   1  15
ATOM     14  C   LIG    1       17.323  42.073 212.263  0.00  0.00    +0.195 C 
ATOM     15  O   LIG    1       18.314  41.609 211.293  0.00  0.00    -0.363 OA
ENDBRANCH   1  15
BRANCH   1  16
ATOM     16  C   LIG    1       17.724  39.387 210.338  0.00  0.00    +0.325 C 
BRANCH  16  17
ATOM     17  C   LIG    1       17.514  40.195 209.071  0.00  0.00    +0.350 C 
ATOM     18  O   LIG    1       18.111  39.959 208.025  0.00  0.00    -0.247 OA
BRANCH  17  19
ATOM     19  O   LIG    1       16.679  41.274 209.081  0.00  0.00    -0.478 OA
ATOM     20  H   LIG    1       15.764  41.002 208.968  0.00  0.00    +0.295 HD
ENDBRANCH  17  19
ENDBRANCH  16  17
BRANCH  16  21
ATOM     21  O   LIG    1       18.318  38.081 209.965  0.00  0.00    -0.444 OA
BRANCH  21  22
ATOM     22  C   LIG    1       17.549  36.999 209.731  0.00  0.00    +0.319 A 
ATOM     23  N   LIG    1       17.381  36.595 208.474  0.00  0.00    -0.200 NA
ATOM     24  C   LIG    1       16.641  35.523 208.259  0.00  0.00    +0.045 A 
ATOM     25  C   LIG    1       16.450  35.060 206.836  0.00  0.00    +0.066 C 
ATOM     26  C   LIG    1       16.051  34.869 209.330  0.00  0.00    +0.046 A 
ATOM     27  C   LIG    1       16.260  35.352 210.614  0.00  0.00    +0.045 A 
ATOM     28  C   LIG    1       15.659  34.682 211.825  0.00  0.00    +0.066 C 
ATOM     29  N   LIG    1       17.016  36.419 210.798  0.00  0.00    -0.200 NA
ENDBRANCH  21  22
ENDBRANCH  16  21
ENDBRANCH   1  16
TORSDOF 8
