REMARK VINA RESULT:      -8.0      3.623      4.608
REMARK  Name = ZINC000006084415
REMARK                            x       y       z     vdW  Elec       q    Type
REMARK                         _______ _______ _______ _____ _____    ______ ____
ROOT
ATOM      1  O   LIG    1       22.552  44.647 185.424  0.00  0.00    -0.451 OA
ENDROOT
BRANCH   1   2
ATOM      2  C   LIG    1       23.251  45.273 184.445  0.00  0.00    +0.356 C 
ATOM      3  O   LIG    1       24.252  44.715 184.018  0.00  0.00    -0.243 OA
BRANCH   2   7
ATOM      4  C   LIG    1       21.789  48.351 183.006  0.00  0.00    +0.041 A 
ATOM      5  C   LIG    1       21.949  46.948 182.940  0.00  0.00    -0.008 A 
ATOM      6  C   LIG    1       21.359  46.030 181.884  0.00  0.00    +0.047 C 
ATOM      7  C   LIG    1       22.735  46.552 183.996  0.00  0.00    +0.128 A 
ATOM      8  N   LIG    1       23.050  47.688 184.696  0.00  0.00    -0.352 N 
ATOM      9  H   LIG    1       23.647  47.697 185.544  0.00  0.00    +0.166 HD
ATOM     10  C   LIG    1       22.496  48.777 184.123  0.00  0.00    +0.024 A 
ATOM     11  C   LIG    1       22.736  50.136 184.752  0.00  0.00    +0.064 C 
BRANCH   4  13
ATOM     12  C   LIG    1       21.687  49.975 180.968  0.00  0.00    +0.091 C 
ATOM     13  C   LIG    1       21.026  49.174 182.062  0.00  0.00    +0.162 C 
ATOM     14  O   LIG    1       19.816  49.256 182.106  0.00  0.00    -0.292 OA
ENDBRANCH   4  13
ENDBRANCH   2   7
ENDBRANCH   1   2
BRANCH   1  15
ATOM     15  C   LIG    1       22.944  44.794 186.837  0.00  0.00    +0.328 C 
BRANCH  15  16
ATOM     16  C   LIG    1       23.054  43.391 187.435  0.00  0.00    +0.256 C 
ATOM     17  N   LIG    1       22.534  43.038 188.641  0.00  0.00    -0.266 N 
ATOM     18  H   LIG    1       22.569  42.027 188.816  0.00  0.00    +0.156 HD
ATOM     19  O   LIG    1       23.640  42.490 186.869  0.00  0.00    -0.272 OA
BRANCH  17  20
ATOM     20  C   LIG    1       21.945  43.847 189.627  0.00  0.00    +0.144 A 
ATOM     21  C   LIG    1       22.546  43.940 190.899  0.00  0.00    +0.082 A 
ATOM     22 CL   LIG    1       23.992  43.060 191.280  0.00  0.00    -0.080 Cl
ATOM     23  C   LIG    1       21.966  44.757 191.856  0.00  0.00    +0.045 A 
ATOM     24  C   LIG    1       20.814  45.457 191.507  0.00  0.00    +0.063 A 
ATOM     25 CL   LIG    1       20.071  46.484 192.690  0.00  0.00    -0.082 Cl
ATOM     26  C   LIG    1       20.278  45.325 190.215  0.00  0.00    +0.059 A 
ATOM     27  C   LIG    1       19.031  46.074 189.795  0.00  0.00    +0.067 C 
ATOM     28  N   LIG    1       20.847  44.531 189.300  0.00  0.00    -0.234 NA
ENDBRANCH  17  20
ENDBRANCH  15  16
ENDBRANCH   1  15
TORSDOF 6
