REMARK VINA RESULT:      -7.2     25.969     28.539
REMARK  Name = ZINC000000622956
REMARK                            x       y       z     vdW  Elec       q    Type
REMARK                         _______ _______ _______ _____ _____    ______ ____
ROOT
ATOM      1  C   LIG    1       36.877  19.392 189.689  0.00  0.00    +0.271 C 
ATOM      2  N   LIG    1       38.270  19.211 189.361  0.00  0.00    -0.157 N 
ATOM      3  C   LIG    1       39.037  20.114 189.930  0.00  0.00    +0.250 C 
ATOM      4  C   LIG    1       40.553  20.176 189.815  0.00  0.00    +0.124 C 
ATOM      5  C   LIG    1       41.144  19.778 191.187  0.00  0.00    +0.012 C 
ATOM      6  C   LIG    1       41.058  20.970 192.158  0.00  0.00    +0.004 C 
ATOM      7  C   LIG    1       39.639  21.377 192.608  0.00  0.00    +0.045 C 
ATOM      8  C   LIG    1       38.882  22.045 191.444  0.00  0.00    +0.236 C 
ATOM      9  N   LIG    1       38.323  20.952 190.636  0.00  0.00    -0.258 N 
ATOM     10  C   LIG    1       36.882  20.623 190.627  0.00  0.00    +0.323 C 
ENDROOT
BRANCH   1  11
ATOM     11  C   LIG    1       36.031  19.650 188.436  0.00  0.00    +0.034 A 
ATOM     12  C   LIG    1       34.931  18.834 188.117  0.00  0.00    +0.060 A 
ATOM     13  C   LIG    1       34.197  19.122 186.976  0.00  0.00    +0.167 A 
ATOM     14  O   LIG    1       33.119  18.454 186.514  0.00  0.00    -0.453 OA
ATOM     15  C   LIG    1       32.695  19.163 185.280  0.00  0.00    +0.466 C 
ATOM     16  O   LIG    1       33.667  20.271 185.119  0.00  0.00    -0.453 OA
ATOM     17  C   LIG    1       34.515  20.180 186.165  0.00  0.00    +0.166 A 
ATOM     18  C   LIG    1       35.586  21.009 186.452  0.00  0.00    +0.050 A 
ATOM     19  C   LIG    1       36.342  20.740 187.594  0.00  0.00    +0.014 A 
ENDBRANCH   1  11
BRANCH   2  20
ATOM     20  C   LIG    1       38.753  18.126 188.590  0.00  0.00    +0.124 A 
ATOM     21  C   LIG    1       39.011  16.916 189.233  0.00  0.00    +0.050 A 
ATOM     22  C   LIG    1       39.489  15.842 188.487  0.00  0.00    +0.024 A 
ATOM     23  C   LIG    1       39.706  15.990 187.113  0.00  0.00    +0.041 A 
ATOM     24 CL   LIG    1       40.301  14.654 186.189  0.00  0.00    -0.084 Cl
ATOM     25  C   LIG    1       39.446  17.211 186.481  0.00  0.00    +0.024 A 
ATOM     26  C   LIG    1       38.968  18.288 187.222  0.00  0.00    +0.050 A 
ENDBRANCH   2  20
BRANCH   1  27
ATOM     27  O   LIG    1       36.469  18.222 190.386  0.00  0.00    -0.347 OA
ATOM     28  H   LIG    1       35.662  18.437 190.879  0.00  0.00    +0.215 HD
ENDBRANCH   1  27
TORSDOF 3
