REMARK VINA RESULT:      -7.1      2.400      4.415
REMARK  Name = ZINC000000538069
REMARK                            x       y       z     vdW  Elec       q    Type
REMARK                         _______ _______ _______ _____ _____    ______ ____
ROOT
ATOM      1  C   LIG    1       20.351  47.218 188.276  0.00  0.00    +0.248 C 
ATOM      2  N   LIG    1       20.516  47.430 186.939  0.00  0.00    -0.307 N 
ATOM      3  H   LIG    1       21.323  46.951 186.506  0.00  0.00    +0.149 HD
ATOM      4  O   LIG    1       19.556  47.960 188.848  0.00  0.00    -0.270 OA
ENDROOT
BRANCH   1   9
ATOM      5  C   LIG    1       22.555  44.056 190.167  0.00  0.00    +0.049 A 
ATOM      6  C   LIG    1       22.559  44.215 188.766  0.00  0.00    +0.063 A 
ATOM      7 CL   LIG    1       23.475  43.144 187.756  0.00  0.00    -0.082 Cl
ATOM      8  C   LIG    1       21.833  45.246 188.183  0.00  0.00    +0.038 A 
ATOM      9  C   LIG    1       21.085  46.147 188.963  0.00  0.00    +0.080 A 
ATOM     10  C   LIG    1       21.080  45.955 190.366  0.00  0.00    +0.134 A 
ATOM     11  C   LIG    1       21.808  44.923 190.963  0.00  0.00    +0.070 A 
BRANCH   5  13
ATOM     12  C   LIG    1       23.426  42.931 192.205  0.00  0.00    +0.125 C 
ATOM     13  N   LIG    1       23.299  43.010 190.746  0.00  0.00    -0.346 N 
ATOM     14  H   LIG    1       24.195  42.850 190.248  0.00  0.00    +0.146 HD
ENDBRANCH   5  13
BRANCH  10  15
ATOM     15  O   LIG    1       20.336  46.796 191.178  0.00  0.00    -0.494 OA
ATOM     16  C   LIG    1       19.958  46.610 192.563  0.00  0.00    +0.277 C 
ENDBRANCH  10  15
ENDBRANCH   1   9
BRANCH   2  17
ATOM     17  C   LIG    1       20.128  48.662 186.246  0.00  0.00    +0.091 C 
ATOM     18  C   LIG    1       20.885  48.808 184.907  0.00  0.00    +0.074 C 
ATOM     19  C   LIG    1       22.395  48.540 185.049  0.00  0.00    +0.026 C 
ATOM     20  N   LIG    1       20.311  47.753 184.062  0.00  0.00    -0.294 NA
ATOM     21  C   LIG    1       18.922  47.492 184.518  0.00  0.00    +0.087 C 
ATOM     22  C   LIG    1       18.715  48.425 185.728  0.00  0.00    +0.039 C 
BRANCH  20  23
ATOM     23  C   LIG    1       20.375  48.086 182.624  0.00  0.00    +0.120 C 
BRANCH  23  24
ATOM     24  C   LIG    1       20.771  46.797 181.925  0.00  0.00    -0.033 A 
ATOM     25  C   LIG    1       20.458  46.586 180.583  0.00  0.00    +0.005 A 
ATOM     26  C   LIG    1       20.832  45.402 179.952  0.00  0.00    +0.000 A 
ATOM     27  C   LIG    1       21.522  44.423 180.661  0.00  0.00    +0.000 A 
ATOM     28  C   LIG    1       21.837  44.628 182.000  0.00  0.00    +0.000 A 
ATOM     29  C   LIG    1       21.462  45.810 182.629  0.00  0.00    +0.005 A 
ENDBRANCH  23  24
ENDBRANCH  20  23
ENDBRANCH   2  17
TORSDOF 6
