MODEL 1
REMARK VINA RESULT:      -9.7      0.000      0.000
REMARK  Name = ZINC000049421769
REMARK                            x       y       z     vdW  Elec       q    Type
REMARK                         _______ _______ _______ _____ _____    ______ ____
ROOT
ATOM      1  C   LIG    1       27.374  42.594 182.461  0.00  0.00    +0.088 C 
ATOM      2  C   LIG    1       26.119  43.437 182.529  0.00  0.00    +0.135 A 
ATOM      3  N   LIG    1       25.166  43.418 183.488  0.00  0.00    -0.276 N 
ATOM      4  C   LIG    1       24.993  42.661 184.702  0.00  0.00    +0.075 A 
ATOM      5  C   LIG    1       25.875  41.651 185.120  0.00  0.00    +0.028 A 
ATOM      6  C   LIG    1       25.635  40.988 186.314  0.00  0.00    +0.002 A 
ATOM      7  C   LIG    1       24.524  41.323 187.093  0.00  0.00    +0.002 A 
ATOM      8  C   LIG    1       23.649  42.314 186.675  0.00  0.00    +0.030 A 
ATOM      9  C   LIG    1       23.861  42.994 185.470  0.00  0.00    +0.089 A 
ATOM     10  N   LIG    1       22.942  43.965 185.080  0.00  0.00    -0.235 NA
ATOM     11  C   LIG    1       23.131  44.605 183.972  0.00  0.00    +0.143 A 
ATOM     12  C   LIG    1       24.266  44.348 183.123  0.00  0.00    +0.194 A 
ATOM     13  N   LIG    1       24.634  44.904 181.995  0.00  0.00    -0.127 NA
ATOM     14  N   LIG    1       25.802  44.321 181.634  0.00  0.00    -0.134 NA
ENDROOT
BRANCH  11  15
ATOM     15  S   LIG    1       21.978  45.825 183.503  0.00  0.00    -0.093 S 
BRANCH  15  16
ATOM     16  C   LIG    1       22.242  47.159 184.742  0.00  0.00    +0.172 C 
BRANCH  16  17
ATOM     17  C   LIG    1       20.880  47.783 184.980  0.00  0.00    +0.227 C 
ATOM     18  N   LIG    1       20.829  48.863 185.822  0.00  0.00    -0.284 N 
ATOM     19  H   LIG    1       21.697  49.101 186.319  0.00  0.00    +0.155 HD
ATOM     20  O   LIG    1       19.865  47.347 184.480  0.00  0.00    -0.275 OA
BRANCH  18  21
ATOM     21  C   LIG    1       19.651  49.538 186.218  0.00  0.00    +0.039 A 
ATOM     22  C   LIG    1       19.246  50.651 185.464  0.00  0.00    -0.029 A 
ATOM     23  C   LIG    1       20.059  51.161 184.285  0.00  0.00    +0.045 C 
ATOM     24  C   LIG    1       18.077  51.313 185.829  0.00  0.00    +0.005 A 
ATOM     25  C   LIG    1       17.327  50.877 186.918  0.00  0.00    +0.001 A 
ATOM     26  C   LIG    1       17.738  49.769 187.655  0.00  0.00    +0.005 A 
ATOM     27  C   LIG    1       18.900  49.082 187.313  0.00  0.00    -0.029 A 
ATOM     28  C   LIG    1       19.310  47.873 188.136  0.00  0.00    +0.045 C 
ENDBRANCH  18  21
ENDBRANCH  16  17
ENDBRANCH  15  16
ENDBRANCH  11  15
TORSDOF 4
ENDMDL
MODEL 2
REMARK VINA RESULT:      -9.6      1.886      3.436
REMARK  Name = ZINC000049421769
REMARK                            x       y       z     vdW  Elec       q    Type
REMARK                         _______ _______ _______ _____ _____    ______ ____
ROOT
ATOM      1  C   LIG    1       24.912  41.080 187.305  0.00  0.00    +0.088 C 
ATOM      2  C   LIG    1       24.369  42.155 186.391  0.00  0.00    +0.135 A 
ATOM      3  N   LIG    1       23.628  43.233 186.737  0.00  0.00    -0.276 N 
ATOM      4  C   LIG    1       23.118  43.727 187.991  0.00  0.00    +0.075 A 
ATOM      5  C   LIG    1       23.287  43.059 189.215  0.00  0.00    +0.028 A 
ATOM      6  C   LIG    1       22.775  43.623 190.374  0.00  0.00    +0.002 A 
ATOM      7  C   LIG    1       22.097  44.843 190.323  0.00  0.00    +0.002 A 
ATOM      8  C   LIG    1       21.923  45.497 189.112  0.00  0.00    +0.030 A 
ATOM      9  C   LIG    1       22.421  44.948 187.925  0.00  0.00    +0.089 A 
ATOM     10  N   LIG    1       22.201  45.630 186.730  0.00  0.00    -0.235 NA
ATOM     11  C   LIG    1       22.663  45.136 185.627  0.00  0.00    +0.143 A 
ATOM     12  C   LIG    1       23.401  43.900 185.591  0.00  0.00    +0.194 A 
ATOM     13  N   LIG    1       23.960  43.266 184.590  0.00  0.00    -0.127 NA
ATOM     14  N   LIG    1       24.566  42.171 185.109  0.00  0.00    -0.134 NA
ENDROOT
BRANCH  11  15
ATOM     15  S   LIG    1       22.389  46.005 184.142  0.00  0.00    -0.093 S 
BRANCH  15  16
ATOM     16  C   LIG    1       22.490  47.769 184.656  0.00  0.00    +0.172 C 
BRANCH  16  17
ATOM     17  C   LIG    1       21.059  48.224 184.874  0.00  0.00    +0.227 C 
ATOM     18  N   LIG    1       20.859  49.247 185.763  0.00  0.00    -0.284 N 
ATOM     19  H   LIG    1       21.679  49.556 186.302  0.00  0.00    +0.155 HD
ATOM     20  O   LIG    1       20.116  47.703 184.317  0.00  0.00    -0.275 OA
BRANCH  18  21
ATOM     21  C   LIG    1       19.601  49.765 186.146  0.00  0.00    +0.039 A 
ATOM     22  C   LIG    1       18.924  49.134 187.202  0.00  0.00    -0.029 A 
ATOM     23  C   LIG    1       19.486  47.903 187.893  0.00  0.00    +0.045 C 
ATOM     24  C   LIG    1       17.693  49.646 187.604  0.00  0.00    +0.005 A 
ATOM     25  C   LIG    1       17.149  50.760 186.972  0.00  0.00    +0.001 A 
ATOM     26  C   LIG    1       17.833  51.379 185.928  0.00  0.00    +0.005 A 
ATOM     27  C   LIG    1       19.068  50.895 185.505  0.00  0.00    -0.029 A 
ATOM     28  C   LIG    1       19.787  51.603 184.369  0.00  0.00    +0.045 C 
ENDBRANCH  18  21
ENDBRANCH  16  17
ENDBRANCH  15  16
ENDBRANCH  11  15
TORSDOF 4
ENDMDL
MODEL 3
REMARK VINA RESULT:      -8.9      1.724      8.426
REMARK  Name = ZINC000049421769
REMARK                            x       y       z     vdW  Elec       q    Type
REMARK                         _______ _______ _______ _____ _____    ______ ____
ROOT
ATOM      1  C   LIG    1       19.946  46.987 189.615  0.00  0.00    +0.088 C 
ATOM      2  C   LIG    1       20.617  46.814 188.270  0.00  0.00    +0.135 A 
ATOM      3  N   LIG    1       20.414  47.543 187.149  0.00  0.00    -0.276 N 
ATOM      4  C   LIG    1       19.561  48.661 186.831  0.00  0.00    +0.075 A 
ATOM      5  C   LIG    1       18.645  49.220 187.738  0.00  0.00    +0.028 A 
ATOM      6  C   LIG    1       17.879  50.308 187.346  0.00  0.00    +0.002 A 
ATOM      7  C   LIG    1       18.017  50.840 186.062  0.00  0.00    +0.002 A 
ATOM      8  C   LIG    1       18.916  50.281 185.166  0.00  0.00    +0.030 A 
ATOM      9  C   LIG    1       19.696  49.178 185.529  0.00  0.00    +0.089 A 
ATOM     10  N   LIG    1       20.568  48.636 184.587  0.00  0.00    -0.235 NA
ATOM     11  C   LIG    1       21.300  47.621 184.914  0.00  0.00    +0.143 A 
ATOM     12  C   LIG    1       21.245  47.028 186.226  0.00  0.00    +0.194 A 
ATOM     13  N   LIG    1       21.917  46.029 186.741  0.00  0.00    -0.127 NA
ATOM     14  N   LIG    1       21.512  45.907 188.029  0.00  0.00    -0.134 NA
ENDROOT
BRANCH  11  15
ATOM     15  S   LIG    1       22.392  46.961 183.728  0.00  0.00    -0.093 S 
BRANCH  15  16
ATOM     16  C   LIG    1       21.483  45.499 183.079  0.00  0.00    +0.172 C 
BRANCH  16  17
ATOM     17  C   LIG    1       22.395  44.307 183.301  0.00  0.00    +0.227 C 
ATOM     18  N   LIG    1       23.499  44.506 184.089  0.00  0.00    -0.284 N 
ATOM     19  H   LIG    1       23.690  45.474 184.377  0.00  0.00    +0.155 HD
ATOM     20  O   LIG    1       22.190  43.225 182.795  0.00  0.00    -0.275 OA
BRANCH  18  21
ATOM     21  C   LIG    1       24.496  43.541 184.359  0.00  0.00    +0.039 A 
ATOM     22  C   LIG    1       25.596  43.471 183.491  0.00  0.00    -0.029 A 
ATOM     23  C   LIG    1       25.709  44.362 182.265  0.00  0.00    +0.045 C 
ATOM     24  C   LIG    1       26.597  42.539 183.757  0.00  0.00    +0.005 A 
ATOM     25  C   LIG    1       26.504  41.698 184.862  0.00  0.00    +0.001 A 
ATOM     26  C   LIG    1       25.409  41.780 185.717  0.00  0.00    +0.005 A 
ATOM     27  C   LIG    1       24.394  42.704 185.483  0.00  0.00    -0.029 A 
ATOM     28  C   LIG    1       23.220  42.770 186.444  0.00  0.00    +0.045 C 
ENDBRANCH  18  21
ENDBRANCH  16  17
ENDBRANCH  15  16
ENDBRANCH  11  15
TORSDOF 4
ENDMDL
MODEL 4
REMARK VINA RESULT:      -8.6      1.484      2.142
REMARK  Name = ZINC000049421769
REMARK                            x       y       z     vdW  Elec       q    Type
REMARK                         _______ _______ _______ _____ _____    ______ ____
ROOT
ATOM      1  C   LIG    1       27.476  42.155 182.636  0.00  0.00    +0.088 C 
ATOM      2  C   LIG    1       26.237  43.017 182.541  0.00  0.00    +0.135 A 
ATOM      3  N   LIG    1       25.237  43.123 183.446  0.00  0.00    -0.276 N 
ATOM      4  C   LIG    1       24.989  42.514 184.729  0.00  0.00    +0.075 A 
ATOM      5  C   LIG    1       25.829  41.548 185.305  0.00  0.00    +0.028 A 
ATOM      6  C   LIG    1       25.517  41.032 186.554  0.00  0.00    +0.002 A 
ATOM      7  C   LIG    1       24.376  41.470 187.230  0.00  0.00    +0.002 A 
ATOM      8  C   LIG    1       23.542  42.418 186.656  0.00  0.00    +0.030 A 
ATOM      9  C   LIG    1       23.827  42.950 185.393  0.00  0.00    +0.089 A 
ATOM     10  N   LIG    1       22.948  43.882 184.847  0.00  0.00    -0.235 NA
ATOM     11  C   LIG    1       23.205  44.387 183.684  0.00  0.00    +0.143 A 
ATOM     12  C   LIG    1       24.375  44.017 182.930  0.00  0.00    +0.194 A 
ATOM     13  N   LIG    1       24.809  44.432 181.766  0.00  0.00    -0.127 NA
ATOM     14  N   LIG    1       25.982  43.795 181.535  0.00  0.00    -0.134 NA
ENDROOT
BRANCH  11  15
ATOM     15  S   LIG    1       22.101  45.559 183.018  0.00  0.00    -0.093 S 
BRANCH  15  16
ATOM     16  C   LIG    1       23.088  47.112 183.001  0.00  0.00    +0.172 C 
BRANCH  16  17
ATOM     17  C   LIG    1       22.083  48.246 183.050  0.00  0.00    +0.227 C 
ATOM     18  N   LIG    1       21.658  48.649 184.289  0.00  0.00    -0.284 N 
ATOM     19  H   LIG    1       21.964  48.078 185.089  0.00  0.00    +0.155 HD
ATOM     20  O   LIG    1       21.641  48.772 182.050  0.00  0.00    -0.275 OA
BRANCH  18  21
ATOM     21  C   LIG    1       20.683  49.641 184.539  0.00  0.00    +0.039 A 
ATOM     22  C   LIG    1       19.367  49.221 184.791  0.00  0.00    -0.029 A 
ATOM     23  C   LIG    1       18.972  47.754 184.754  0.00  0.00    +0.045 C 
ATOM     24  C   LIG    1       18.399  50.186 185.058  0.00  0.00    +0.005 A 
ATOM     25  C   LIG    1       18.733  51.537 185.076  0.00  0.00    +0.001 A 
ATOM     26  C   LIG    1       20.043  51.940 184.828  0.00  0.00    +0.005 A 
ATOM     27  C   LIG    1       21.035  51.000 184.562  0.00  0.00    -0.029 A 
ATOM     28  C   LIG    1       22.454  51.479 184.305  0.00  0.00    +0.045 C 
ENDBRANCH  18  21
ENDBRANCH  16  17
ENDBRANCH  15  16
ENDBRANCH  11  15
TORSDOF 4
ENDMDL
MODEL 5
REMARK VINA RESULT:      -8.5     29.304     30.603
REMARK  Name = ZINC000049421769
REMARK                            x       y       z     vdW  Elec       q    Type
REMARK                         _______ _______ _______ _____ _____    ______ ____
ROOT
ATOM      1  C   LIG    1       40.304  19.272 186.545  0.00  0.00    +0.088 C 
ATOM      2  C   LIG    1       38.842  19.426 186.191  0.00  0.00    +0.135 A 
ATOM      3  N   LIG    1       37.778  18.897 186.838  0.00  0.00    -0.276 N 
ATOM      4  C   LIG    1       37.639  18.061 188.003  0.00  0.00    +0.075 A 
ATOM      5  C   LIG    1       38.730  17.551 188.727  0.00  0.00    +0.028 A 
ATOM      6  C   LIG    1       38.496  16.768 189.849  0.00  0.00    +0.002 A 
ATOM      7  C   LIG    1       37.188  16.490 190.252  0.00  0.00    +0.002 A 
ATOM      8  C   LIG    1       36.112  16.987 189.531  0.00  0.00    +0.030 A 
ATOM      9  C   LIG    1       36.317  17.772 188.390  0.00  0.00    +0.089 A 
ATOM     10  N   LIG    1       35.206  18.229 187.685  0.00  0.00    -0.235 NA
ATOM     11  C   LIG    1       35.383  18.961 186.634  0.00  0.00    +0.143 A 
ATOM     12  C   LIG    1       36.695  19.324 186.164  0.00  0.00    +0.194 A 
ATOM     13  N   LIG    1       37.066  20.066 185.151  0.00  0.00    -0.127 NA
ATOM     14  N   LIG    1       38.420  20.123 185.181  0.00  0.00    -0.134 NA
ENDROOT
BRANCH  11  15
ATOM     15  S   LIG    1       33.983  19.534 185.768  0.00  0.00    -0.093 S 
BRANCH  15  16
ATOM     16  C   LIG    1       32.602  18.563 186.501  0.00  0.00    +0.172 C 
BRANCH  16  17
ATOM     17  C   LIG    1       31.480  18.596 185.481  0.00  0.00    +0.227 C 
ATOM     18  N   LIG    1       30.912  17.397 185.141  0.00  0.00    -0.284 N 
ATOM     19  H   LIG    1       31.363  16.551 185.515  0.00  0.00    +0.155 HD
ATOM     20  O   LIG    1       31.103  19.624 184.958  0.00  0.00    -0.275 OA
BRANCH  18  21
ATOM     21  C   LIG    1       29.903  17.215 184.167  0.00  0.00    +0.039 A 
ATOM     22  C   LIG    1       30.299  17.082 182.827  0.00  0.00    -0.029 A 
ATOM     23  C   LIG    1       31.757  17.177 182.407  0.00  0.00    +0.045 C 
ATOM     24  C   LIG    1       29.318  16.882 181.860  0.00  0.00    +0.005 A 
ATOM     25  C   LIG    1       27.975  16.814 182.218  0.00  0.00    +0.001 A 
ATOM     26  C   LIG    1       27.596  16.944 183.551  0.00  0.00    +0.005 A 
ATOM     27  C   LIG    1       28.553  17.139 184.544  0.00  0.00    -0.029 A 
ATOM     28  C   LIG    1       28.101  17.267 185.989  0.00  0.00    +0.045 C 
ENDBRANCH  18  21
ENDBRANCH  16  17
ENDBRANCH  15  16
ENDBRANCH  11  15
TORSDOF 4
ENDMDL
MODEL 6
REMARK VINA RESULT:      -8.2      2.681      4.066
REMARK  Name = ZINC000049421769
REMARK                            x       y       z     vdW  Elec       q    Type
REMARK                         _______ _______ _______ _____ _____    ______ ____
ROOT
ATOM      1  C   LIG    1       24.815  41.213 187.102  0.00  0.00    +0.088 C 
ATOM      2  C   LIG    1       24.216  42.330 186.277  0.00  0.00    +0.135 A 
ATOM      3  N   LIG    1       23.507  43.393 186.721  0.00  0.00    -0.276 N 
ATOM      4  C   LIG    1       23.089  43.832 188.029  0.00  0.00    +0.075 A 
ATOM      5  C   LIG    1       23.339  43.108 189.207  0.00  0.00    +0.028 A 
ATOM      6  C   LIG    1       22.912  43.621 190.423  0.00  0.00    +0.002 A 
ATOM      7  C   LIG    1       22.239  44.844 190.474  0.00  0.00    +0.002 A 
ATOM      8  C   LIG    1       21.986  45.552 189.309  0.00  0.00    +0.030 A 
ATOM      9  C   LIG    1       22.396  45.057 188.066  0.00  0.00    +0.089 A 
ATOM     10  N   LIG    1       22.098  45.792 186.922  0.00  0.00    -0.235 NA
ATOM     11  C   LIG    1       22.479  45.347 185.769  0.00  0.00    +0.143 A 
ATOM     12  C   LIG    1       23.205  44.111 185.625  0.00  0.00    +0.194 A 
ATOM     13  N   LIG    1       23.689  43.522 184.561  0.00  0.00    -0.127 NA
ATOM     14  N   LIG    1       24.323  42.403 184.986  0.00  0.00    -0.134 NA
ENDROOT
BRANCH  11  15
ATOM     15  S   LIG    1       22.107  46.283 184.347  0.00  0.00    -0.093 S 
BRANCH  15  16
ATOM     16  C   LIG    1       20.842  47.478 184.942  0.00  0.00    +0.172 C 
BRANCH  16  17
ATOM     17  C   LIG    1       20.875  48.641 183.970  0.00  0.00    +0.227 C 
ATOM     18  N   LIG    1       20.005  49.674 184.204  0.00  0.00    -0.284 N 
ATOM     19  H   LIG    1       19.316  49.534 184.954  0.00  0.00    +0.155 HD
ATOM     20  O   LIG    1       21.611  48.667 183.006  0.00  0.00    -0.275 OA
BRANCH  18  21
ATOM     21  C   LIG    1       19.841  50.810 183.379  0.00  0.00    +0.039 A 
ATOM     22  C   LIG    1       18.827  50.779 182.409  0.00  0.00    -0.029 A 
ATOM     23  C   LIG    1       17.953  49.553 182.202  0.00  0.00    +0.045 C 
ATOM     24  C   LIG    1       18.641  51.898 181.603  0.00  0.00    +0.005 A 
ATOM     25  C   LIG    1       19.444  53.024 181.759  0.00  0.00    +0.001 A 
ATOM     26  C   LIG    1       20.443  53.045 182.728  0.00  0.00    +0.005 A 
ATOM     27  C   LIG    1       20.652  51.944 183.554  0.00  0.00    -0.029 A 
ATOM     28  C   LIG    1       21.747  52.007 184.605  0.00  0.00    +0.045 C 
ENDBRANCH  18  21
ENDBRANCH  16  17
ENDBRANCH  15  16
ENDBRANCH  11  15
TORSDOF 4
ENDMDL
MODEL 7
REMARK VINA RESULT:      -7.9      3.036      8.336
REMARK  Name = ZINC000049421769
REMARK                            x       y       z     vdW  Elec       q    Type
REMARK                         _______ _______ _______ _____ _____    ______ ____
ROOT
ATOM      1  C   LIG    1       19.813  46.849 189.342  0.00  0.00    +0.088 C 
ATOM      2  C   LIG    1       20.585  46.849 188.041  0.00  0.00    +0.135 A 
ATOM      3  N   LIG    1       20.402  47.661 186.975  0.00  0.00    -0.276 N 
ATOM      4  C   LIG    1       19.488  48.740 186.693  0.00  0.00    +0.075 A 
ATOM      5  C   LIG    1       18.472  49.147 187.574  0.00  0.00    +0.028 A 
ATOM      6  C   LIG    1       17.652  50.209 187.222  0.00  0.00    +0.002 A 
ATOM      7  C   LIG    1       17.835  50.865 186.003  0.00  0.00    +0.002 A 
ATOM      8  C   LIG    1       18.833  50.456 185.130  0.00  0.00    +0.030 A 
ATOM      9  C   LIG    1       19.670  49.382 185.454  0.00  0.00    +0.089 A 
ATOM     10  N   LIG    1       20.642  48.993 184.535  0.00  0.00    -0.235 NA
ATOM     11  C   LIG    1       21.427  48.007 184.827  0.00  0.00    +0.143 A 
ATOM     12  C   LIG    1       21.330  47.293 186.075  0.00  0.00    +0.194 A 
ATOM     13  N   LIG    1       22.041  46.302 186.550  0.00  0.00    -0.127 NA
ATOM     14  N   LIG    1       21.562  46.033 187.789  0.00  0.00    -0.134 NA
ENDROOT
BRANCH  11  15
ATOM     15  S   LIG    1       22.645  47.537 183.672  0.00  0.00    -0.093 S 
BRANCH  15  16
ATOM     16  C   LIG    1       21.812  47.783 182.051  0.00  0.00    +0.172 C 
BRANCH  16  17
ATOM     17  C   LIG    1       22.063  46.517 181.255  0.00  0.00    +0.227 C 
ATOM     18  N   LIG    1       21.275  45.434 181.543  0.00  0.00    -0.284 N 
ATOM     19  H   LIG    1       20.648  45.523 182.353  0.00  0.00    +0.155 HD
ATOM     20  O   LIG    1       22.934  46.435 180.415  0.00  0.00    -0.275 OA
BRANCH  18  21
ATOM     21  C   LIG    1       21.398  44.153 180.958  0.00  0.00    +0.039 A 
ATOM     22  C   LIG    1       20.623  43.871 179.822  0.00  0.00    -0.029 A 
ATOM     23  C   LIG    1       19.639  44.879 179.251  0.00  0.00    +0.045 C 
ATOM     24  C   LIG    1       20.749  42.621 179.222  0.00  0.00    +0.005 A 
ATOM     25  C   LIG    1       21.627  41.673 179.741  0.00  0.00    +0.001 A 
ATOM     26  C   LIG    1       22.393  41.967 180.865  0.00  0.00    +0.005 A 
ATOM     27  C   LIG    1       22.295  43.209 181.485  0.00  0.00    -0.029 A 
ATOM     28  C   LIG    1       23.154  43.495 182.705  0.00  0.00    +0.045 C 
ENDBRANCH  18  21
ENDBRANCH  16  17
ENDBRANCH  15  16
ENDBRANCH  11  15
TORSDOF 4
ENDMDL
MODEL 8
REMARK VINA RESULT:      -7.7     29.258     33.470
REMARK  Name = ZINC000049421769
REMARK                            x       y       z     vdW  Elec       q    Type
REMARK                         _______ _______ _______ _____ _____    ______ ____
ROOT
ATOM      1  C   LIG    1       25.866  27.425 205.335  0.00  0.00    +0.088 C 
ATOM      2  C   LIG    1       26.652  26.139 205.207  0.00  0.00    +0.135 A 
ATOM      3  N   LIG    1       27.524  25.615 206.099  0.00  0.00    -0.276 N 
ATOM      4  C   LIG    1       27.997  26.039 207.393  0.00  0.00    +0.075 A 
ATOM      5  C   LIG    1       27.617  27.247 208.000  0.00  0.00    +0.028 A 
ATOM      6  C   LIG    1       28.111  27.561 209.258  0.00  0.00    +0.002 A 
ATOM      7  C   LIG    1       28.978  26.682 209.912  0.00  0.00    +0.002 A 
ATOM      8  C   LIG    1       29.358  25.494 209.307  0.00  0.00    +0.030 A 
ATOM      9  C   LIG    1       28.884  25.154 208.035  0.00  0.00    +0.089 A 
ATOM     10  N   LIG    1       29.312  23.961 207.458  0.00  0.00    -0.235 NA
ATOM     11  C   LIG    1       28.874  23.634 206.286  0.00  0.00    +0.143 A 
ATOM     12  C   LIG    1       27.953  24.464 205.552  0.00  0.00    +0.194 A 
ATOM     13  N   LIG    1       27.388  24.289 204.384  0.00  0.00    -0.127 NA
ATOM     14  N   LIG    1       26.571  25.351 204.180  0.00  0.00    -0.134 NA
ENDROOT
BRANCH  11  15
ATOM     15  S   LIG    1       29.411  22.134 205.581  0.00  0.00    -0.093 S 
BRANCH  15  16
ATOM     16  C   LIG    1       29.862  21.113 207.044  0.00  0.00    +0.172 C 
BRANCH  16  17
ATOM     17  C   LIG    1       28.557  20.778 207.738  0.00  0.00    +0.227 C 
ATOM     18  N   LIG    1       28.504  20.972 209.094  0.00  0.00    -0.284 N 
ATOM     19  H   LIG    1       29.387  21.223 209.558  0.00  0.00    +0.155 HD
ATOM     20  O   LIG    1       27.597  20.332 207.146  0.00  0.00    -0.275 OA
BRANCH  18  21
ATOM     21  C   LIG    1       27.404  20.659 209.924  0.00  0.00    +0.039 A 
ATOM     22  C   LIG    1       27.340  19.369 210.474  0.00  0.00    -0.029 A 
ATOM     23  C   LIG    1       28.385  18.311 210.160  0.00  0.00    +0.045 C 
ATOM     24  C   LIG    1       26.273  19.053 211.310  0.00  0.00    +0.005 A 
ATOM     25  C   LIG    1       25.292  19.999 211.594  0.00  0.00    +0.001 A 
ATOM     26  C   LIG    1       25.369  21.277 211.046  0.00  0.00    +0.005 A 
ATOM     27  C   LIG    1       26.426  21.627 210.210  0.00  0.00    -0.029 A 
ATOM     28  C   LIG    1       26.479  23.033 209.638  0.00  0.00    +0.045 C 
ENDBRANCH  18  21
ENDBRANCH  16  17
ENDBRANCH  15  16
ENDBRANCH  11  15
TORSDOF 4
ENDMDL
MODEL 9
REMARK VINA RESULT:      -7.7     29.354     33.946
REMARK  Name = ZINC000049421769
REMARK                            x       y       z     vdW  Elec       q    Type
REMARK                         _______ _______ _______ _____ _____    ______ ____
ROOT
ATOM      1  C   LIG    1       26.992  28.357 205.759  0.00  0.00    +0.088 C 
ATOM      2  C   LIG    1       27.303  26.881 205.643  0.00  0.00    +0.135 A 
ATOM      3  N   LIG    1       27.723  26.049 206.623  0.00  0.00    -0.276 N 
ATOM      4  C   LIG    1       28.010  26.229 208.024  0.00  0.00    +0.075 A 
ATOM      5  C   LIG    1       27.937  27.470 208.678  0.00  0.00    +0.028 A 
ATOM      6  C   LIG    1       28.214  27.541 210.036  0.00  0.00    +0.002 A 
ATOM      7  C   LIG    1       28.563  26.389 210.744  0.00  0.00    +0.002 A 
ATOM      8  C   LIG    1       28.643  25.166 210.094  0.00  0.00    +0.030 A 
ATOM      9  C   LIG    1       28.378  25.064 208.724  0.00  0.00    +0.089 A 
ATOM     10  N   LIG    1       28.494  23.819 208.111  0.00  0.00    -0.235 NA
ATOM     11  C   LIG    1       28.244  23.712 206.846  0.00  0.00    +0.143 A 
ATOM     12  C   LIG    1       27.847  24.842 206.045  0.00  0.00    +0.194 A 
ATOM     13  N   LIG    1       27.532  24.922 204.776  0.00  0.00    -0.127 NA
ATOM     14  N   LIG    1       27.191  26.211 204.538  0.00  0.00    -0.134 NA
ENDROOT
BRANCH  11  15
ATOM     15  S   LIG    1       28.384  22.146 206.096  0.00  0.00    -0.093 S 
BRANCH  15  16
ATOM     16  C   LIG    1       30.202  21.897 205.966  0.00  0.00    +0.172 C 
BRANCH  16  17
ATOM     17  C   LIG    1       30.454  20.449 206.343  0.00  0.00    +0.227 C 
ATOM     18  N   LIG    1       29.435  19.561 206.115  0.00  0.00    -0.284 N 
ATOM     19  H   LIG    1       28.536  19.958 205.813  0.00  0.00    +0.155 HD
ATOM     20  O   LIG    1       31.491  20.076 206.847  0.00  0.00    -0.275 OA
BRANCH  18  21
ATOM     21  C   LIG    1       29.454  18.189 206.456  0.00  0.00    +0.039 A 
ATOM     22  C   LIG    1       28.895  17.809 207.686  0.00  0.00    -0.029 A 
ATOM     23  C   LIG    1       28.326  18.830 208.658  0.00  0.00    +0.045 C 
ATOM     24  C   LIG    1       28.888  16.459 208.027  0.00  0.00    +0.005 A 
ATOM     25  C   LIG    1       29.423  15.508 207.162  0.00  0.00    +0.001 A 
ATOM     26  C   LIG    1       29.971  15.898 205.943  0.00  0.00    +0.005 A 
ATOM     27  C   LIG    1       29.989  17.239 205.570  0.00  0.00    -0.029 A 
ATOM     28  C   LIG    1       30.587  17.624 204.228  0.00  0.00    +0.045 C 
ENDBRANCH  18  21
ENDBRANCH  16  17
ENDBRANCH  15  16
ENDBRANCH  11  15
TORSDOF 4
ENDMDL
