REMARK VINA RESULT:      -7.0     30.804     32.969
REMARK  Name = ZINC000000538069
REMARK                            x       y       z     vdW  Elec       q    Type
REMARK                         _______ _______ _______ _____ _____    ______ ____
ROOT
ATOM      1  C   LIG    1       36.349  18.953 193.962  0.00  0.00    +0.248 C 
ATOM      2  N   LIG    1       36.454  19.437 192.692  0.00  0.00    -0.307 N 
ATOM      3  H   LIG    1       35.995  18.872 191.957  0.00  0.00    +0.149 HD
ATOM      4  O   LIG    1       37.081  19.471 194.801  0.00  0.00    -0.270 OA
ENDROOT
BRANCH   1   9
ATOM      5  C   LIG    1       33.502  15.906 194.987  0.00  0.00    +0.049 A 
ATOM      6  C   LIG    1       33.621  17.085 195.752  0.00  0.00    +0.063 A 
ATOM      7 CL   LIG    1       32.602  17.352 197.129  0.00  0.00    -0.082 Cl
ATOM      8  C   LIG    1       34.554  18.051 195.397  0.00  0.00    +0.038 A 
ATOM      9  C   LIG    1       35.395  17.883 194.281  0.00  0.00    +0.080 A 
ATOM     10  C   LIG    1       35.271  16.682 193.540  0.00  0.00    +0.134 A 
ATOM     11  C   LIG    1       34.335  15.705 193.887  0.00  0.00    +0.070 A 
BRANCH   5  13
ATOM     12  C   LIG    1       31.244  14.914 194.686  0.00  0.00    +0.125 C 
ATOM     13  N   LIG    1       32.550  14.936 195.354  0.00  0.00    -0.346 N 
ATOM     14  H   LIG    1       32.485  14.827 196.384  0.00  0.00    +0.146 HD
ENDBRANCH   5  13
BRANCH  10  15
ATOM     15  O   LIG    1       36.094  16.453 192.449  0.00  0.00    -0.494 OA
ATOM     16  C   LIG    1       35.758  15.853 191.176  0.00  0.00    +0.277 C 
ENDBRANCH  10  15
ENDBRANCH   1   9
BRANCH   2  17
ATOM     17  C   LIG    1       37.590  20.220 192.200  0.00  0.00    +0.091 C 
ATOM     18  C   LIG    1       37.937  19.842 190.742  0.00  0.00    +0.074 C 
ATOM     19  C   LIG    1       38.001  18.319 190.526  0.00  0.00    +0.026 C 
ATOM     20  N   LIG    1       36.806  20.368 189.965  0.00  0.00    -0.294 NA
ATOM     21  C   LIG    1       36.235  21.528 190.694  0.00  0.00    +0.087 C 
ATOM     22  C   LIG    1       37.065  21.635 191.990  0.00  0.00    +0.039 C 
BRANCH  20  23
ATOM     23  C   LIG    1       37.186  20.710 188.579  0.00  0.00    +0.120 C 
BRANCH  23  24
ATOM     24  C   LIG    1       35.998  20.311 187.721  0.00  0.00    -0.033 A 
ATOM     25  C   LIG    1       35.231  19.190 188.038  0.00  0.00    +0.005 A 
ATOM     26  C   LIG    1       34.141  18.838 187.246  0.00  0.00    +0.000 A 
ATOM     27  C   LIG    1       33.811  19.606 186.133  0.00  0.00    +0.000 A 
ATOM     28  C   LIG    1       34.572  20.725 185.813  0.00  0.00    +0.000 A 
ATOM     29  C   LIG    1       35.662  21.075 186.603  0.00  0.00    +0.005 A 
ENDBRANCH  23  24
ENDBRANCH  20  23
ENDBRANCH   2  17
TORSDOF 6
