MODEL 1
REMARK VINA RESULT:      -8.9      0.000      0.000
REMARK  Name = ZINC000186872603
REMARK                            x       y       z     vdW  Elec       q    Type
REMARK                         _______ _______ _______ _____ _____    ______ ____
ROOT
ATOM      1  N   LIG    1       26.154  43.813 181.702  0.00  0.00    -0.297 N 
ATOM      2  C   LIG    1       27.048  42.896 182.456  0.00  0.00    +0.123 C 
ATOM      3  C   LIG    1       26.202  41.700 182.962  0.00  0.00    +0.103 C 
ATOM      4  N   LIG    1       25.085  42.176 183.829  0.00  0.00    -0.299 NA
ATOM      5  C   LIG    1       24.199  43.086 183.035  0.00  0.00    +0.103 C 
ATOM      6  C   LIG    1       24.983  44.304 182.476  0.00  0.00    +0.123 C 
ENDROOT
BRANCH   1  10
ATOM      7  C   LIG    1       25.609  46.235 177.628  0.00  0.00    +0.066 C 
ATOM      8  C   LIG    1       26.471  45.817 178.794  0.00  0.00    +0.044 A 
ATOM      9  N   LIG    1       25.952  45.019 179.704  0.00  0.00    -0.220 NA
ATOM     10  C   LIG    1       26.710  44.650 180.744  0.00  0.00    +0.218 A 
ATOM     11  N   LIG    1       27.978  45.046 180.911  0.00  0.00    -0.219 NA
ATOM     12  C   LIG    1       28.526  45.849 180.015  0.00  0.00    +0.049 A 
ATOM     13  C   LIG    1       27.777  46.261 178.922  0.00  0.00    +0.046 A 
BRANCH  12  14
ATOM     14  C   LIG    1       29.969  46.313 180.192  0.00  0.00    +0.032 C 
ATOM     15  C   LIG    1       30.074  47.162 181.468  0.00  0.00    +0.014 C 
ATOM     16  C   LIG    1       30.394  47.126 178.959  0.00  0.00    +0.014 C 
ENDBRANCH  12  14
ENDBRANCH   1  10
BRANCH   4  17
ATOM     17  C   LIG    1       25.560  42.740 185.110  0.00  0.00    +0.085 C 
BRANCH  17  18
ATOM     18  C   LIG    1       24.605  42.167 186.172  0.00  0.00    +0.025 C 
BRANCH  18  19
ATOM     19  C   LIG    1       25.303  42.231 187.544  0.00  0.00    +0.097 C 
BRANCH  19  20
ATOM     20  C   LIG    1       24.349  42.851 188.543  0.00  0.00    +0.197 A 
ATOM     21  O   LIG    1       23.125  43.264 188.116  0.00  0.00    -0.440 OA
ATOM     22  C   LIG    1       22.528  43.747 189.210  0.00  0.00    +0.155 A 
ATOM     23  C   LIG    1       21.258  44.301 189.354  0.00  0.00    +0.048 A 
ATOM     24  C   LIG    1       20.882  44.730 190.623  0.00  0.00    +0.004 A 
ATOM     25  C   LIG    1       21.770  44.602 191.710  0.00  0.00    +0.002 A 
ATOM     26  C   LIG    1       23.034  44.043 191.533  0.00  0.00    +0.031 A 
ATOM     27  C   LIG    1       23.407  43.612 190.257  0.00  0.00    +0.110 A 
ATOM     28  N   LIG    1       24.563  43.031 189.793  0.00  0.00    -0.213 NA
ENDBRANCH  19  20
ENDBRANCH  18  19
ENDBRANCH  17  18
ENDBRANCH   4  17
TORSDOF 6
ENDMDL
MODEL 2
REMARK VINA RESULT:      -8.7     25.783     27.659
REMARK  Name = ZINC000186872603
REMARK                            x       y       z     vdW  Elec       q    Type
REMARK                         _______ _______ _______ _____ _____    ______ ____
ROOT
ATOM      1  N   LIG    1       30.659  17.845 185.647  0.00  0.00    -0.297 N 
ATOM      2  C   LIG    1       31.448  18.001 184.396  0.00  0.00    +0.123 C 
ATOM      3  C   LIG    1       32.952  17.889 184.752  0.00  0.00    +0.103 C 
ATOM      4  N   LIG    1       33.335  18.930 185.750  0.00  0.00    -0.299 NA
ATOM      5  C   LIG    1       32.532  18.734 186.999  0.00  0.00    +0.103 C 
ATOM      6  C   LIG    1       31.007  18.815 186.718  0.00  0.00    +0.123 C 
ENDROOT
BRANCH   1  10
ATOM      7  C   LIG    1       27.103  16.240 182.902  0.00  0.00    +0.066 C 
ATOM      8  C   LIG    1       27.630  16.633 184.261  0.00  0.00    +0.044 A 
ATOM      9  N   LIG    1       28.872  17.058 184.354  0.00  0.00    -0.220 NA
ATOM     10  C   LIG    1       29.346  17.402 185.557  0.00  0.00    +0.218 A 
ATOM     11  N   LIG    1       28.622  17.342 186.681  0.00  0.00    -0.219 NA
ATOM     12  C   LIG    1       27.372  16.915 186.620  0.00  0.00    +0.049 A 
ATOM     13  C   LIG    1       26.838  16.545 185.395  0.00  0.00    +0.046 A 
BRANCH  12  14
ATOM     14  C   LIG    1       26.533  16.837 187.892  0.00  0.00    +0.032 C 
ATOM     15  C   LIG    1       27.453  16.987 189.114  0.00  0.00    +0.014 C 
ATOM     16  C   LIG    1       25.794  15.489 187.929  0.00  0.00    +0.014 C 
ENDBRANCH  12  14
ENDBRANCH   1  10
BRANCH   4  17
ATOM     17  C   LIG    1       33.285  20.298 185.192  0.00  0.00    +0.085 C 
BRANCH  17  18
ATOM     18  C   LIG    1       34.434  21.050 185.888  0.00  0.00    +0.025 C 
BRANCH  18  19
ATOM     19  C   LIG    1       35.680  20.144 185.894  0.00  0.00    +0.097 C 
BRANCH  19  20
ATOM     20  C   LIG    1       36.537  20.510 187.087  0.00  0.00    +0.197 A 
ATOM     21  O   LIG    1       35.997  20.439 188.333  0.00  0.00    -0.440 OA
ATOM     22  C   LIG    1       36.986  20.807 189.154  0.00  0.00    +0.155 A 
ATOM     23  C   LIG    1       36.989  20.913 190.543  0.00  0.00    +0.048 A 
ATOM     24  C   LIG    1       38.169  21.323 191.155  0.00  0.00    +0.004 A 
ATOM     25  C   LIG    1       39.309  21.618 190.379  0.00  0.00    +0.002 A 
ATOM     26  C   LIG    1       39.272  21.502 188.991  0.00  0.00    +0.031 A 
ATOM     27  C   LIG    1       38.086  21.087 188.381  0.00  0.00    +0.110 A 
ATOM     28  N   LIG    1       37.762  20.884 187.060  0.00  0.00    -0.213 NA
ENDBRANCH  19  20
ENDBRANCH  18  19
ENDBRANCH  17  18
ENDBRANCH   4  17
TORSDOF 6
ENDMDL
MODEL 3
REMARK VINA RESULT:      -8.7      2.141     10.065
REMARK  Name = ZINC000186872603
REMARK                            x       y       z     vdW  Elec       q    Type
REMARK                         _______ _______ _______ _____ _____    ______ ____
ROOT
ATOM      1  N   LIG    1       23.248  43.436 187.161  0.00  0.00    -0.297 N 
ATOM      2  C   LIG    1       23.313  44.126 185.846  0.00  0.00    +0.123 C 
ATOM      3  C   LIG    1       23.520  43.056 184.745  0.00  0.00    +0.103 C 
ATOM      4  N   LIG    1       24.770  42.280 184.994  0.00  0.00    -0.299 NA
ATOM      5  C   LIG    1       24.665  41.589 186.318  0.00  0.00    +0.103 C 
ATOM      6  C   LIG    1       24.437  42.599 187.475  0.00  0.00    +0.123 C 
ENDROOT
BRANCH   1  10
ATOM      7  C   LIG    1       20.313  46.907 188.606  0.00  0.00    +0.066 C 
ATOM      8  C   LIG    1       21.179  45.713 188.922  0.00  0.00    +0.044 A 
ATOM      9  N   LIG    1       21.818  45.121 187.935  0.00  0.00    -0.220 NA
ATOM     10  C   LIG    1       22.582  44.057 188.209  0.00  0.00    +0.218 A 
ATOM     11  N   LIG    1       22.740  43.558 189.441  0.00  0.00    -0.219 NA
ATOM     12  C   LIG    1       22.108  44.130 190.453  0.00  0.00    +0.049 A 
ATOM     13  C   LIG    1       21.302  45.233 190.217  0.00  0.00    +0.046 A 
BRANCH  12  14
ATOM     14  C   LIG    1       22.274  43.572 191.864  0.00  0.00    +0.032 C 
ATOM     15  C   LIG    1       22.000  44.688 192.884  0.00  0.00    +0.014 C 
ATOM     16  C   LIG    1       23.700  43.022 192.027  0.00  0.00    +0.014 C 
ENDBRANCH  12  14
ENDBRANCH   1  10
BRANCH   4  17
ATOM     17  C   LIG    1       25.989  43.096 184.818  0.00  0.00    +0.085 C 
BRANCH  17  18
ATOM     18  C   LIG    1       25.788  43.821 183.476  0.00  0.00    +0.025 C 
BRANCH  18  19
ATOM     19  C   LIG    1       26.693  43.158 182.420  0.00  0.00    +0.097 C 
BRANCH  19  20
ATOM     20  C   LIG    1       27.562  44.226 181.789  0.00  0.00    +0.197 A 
ATOM     21  O   LIG    1       28.150  45.155 182.589  0.00  0.00    -0.440 OA
ATOM     22  C   LIG    1       28.842  45.935 181.754  0.00  0.00    +0.155 A 
ATOM     23  C   LIG    1       29.636  47.046 182.033  0.00  0.00    +0.048 A 
ATOM     24  C   LIG    1       30.254  47.682 180.961  0.00  0.00    +0.004 A 
ATOM     25  C   LIG    1       30.068  47.205 179.647  0.00  0.00    +0.002 A 
ATOM     26  C   LIG    1       29.268  46.091 179.401  0.00  0.00    +0.031 A 
ATOM     27  C   LIG    1       28.651  45.455 180.481  0.00  0.00    +0.110 A 
ATOM     28  N   LIG    1       27.826  44.356 180.542  0.00  0.00    -0.213 NA
ENDBRANCH  19  20
ENDBRANCH  18  19
ENDBRANCH  17  18
ENDBRANCH   4  17
TORSDOF 6
ENDMDL
MODEL 4
REMARK VINA RESULT:      -8.4      2.018      2.728
REMARK  Name = ZINC000186872603
REMARK                            x       y       z     vdW  Elec       q    Type
REMARK                         _______ _______ _______ _____ _____    ______ ____
ROOT
ATOM      1  N   LIG    1       24.763  44.674 182.997  0.00  0.00    -0.297 N 
ATOM      2  C   LIG    1       25.928  43.750 182.958  0.00  0.00    +0.123 C 
ATOM      3  C   LIG    1       25.407  42.303 183.150  0.00  0.00    +0.103 C 
ATOM      4  N   LIG    1       24.676  42.174 184.444  0.00  0.00    -0.299 NA
ATOM      5  C   LIG    1       23.505  43.107 184.443  0.00  0.00    +0.103 C 
ATOM      6  C   LIG    1       23.947  44.582 184.236  0.00  0.00    +0.123 C 
ENDROOT
BRANCH   1  10
ATOM      7  C   LIG    1       23.199  49.161 182.585  0.00  0.00    +0.066 C 
ATOM      8  C   LIG    1       24.132  48.058 182.150  0.00  0.00    +0.044 A 
ATOM      9  N   LIG    1       24.037  46.886 182.742  0.00  0.00    -0.220 NA
ATOM     10  C   LIG    1       24.866  45.905 182.364  0.00  0.00    +0.218 A 
ATOM     11  N   LIG    1       25.791  46.047 181.407  0.00  0.00    -0.219 NA
ATOM     12  C   LIG    1       25.912  47.214 180.796  0.00  0.00    +0.049 A 
ATOM     13  C   LIG    1       25.077  48.261 181.156  0.00  0.00    +0.046 A 
BRANCH  12  14
ATOM     14  C   LIG    1       26.964  47.395 179.706  0.00  0.00    +0.032 C 
ATOM     15  C   LIG    1       26.322  47.131 178.335  0.00  0.00    +0.014 C 
ATOM     16  C   LIG    1       28.127  46.423 179.958  0.00  0.00    +0.014 C 
ENDBRANCH  12  14
ENDBRANCH   1  10
BRANCH   4  17
ATOM     17  C   LIG    1       25.568  42.304 185.615  0.00  0.00    +0.085 C 
BRANCH  17  18
ATOM     18  C   LIG    1       24.762  41.723 186.791  0.00  0.00    +0.025 C 
BRANCH  18  19
ATOM     19  C   LIG    1       25.298  42.332 188.101  0.00  0.00    +0.097 C 
BRANCH  19  20
ATOM     20  C   LIG    1       24.150  43.004 188.826  0.00  0.00    +0.197 A 
ATOM     21  O   LIG    1       24.267  43.253 190.158  0.00  0.00    -0.440 OA
ATOM     22  C   LIG    1       23.119  43.847 190.496  0.00  0.00    +0.155 A 
ATOM     23  C   LIG    1       22.699  44.320 191.737  0.00  0.00    +0.048 A 
ATOM     24  C   LIG    1       21.440  44.906 191.811  0.00  0.00    +0.004 A 
ATOM     25  C   LIG    1       20.632  45.007 190.659  0.00  0.00    +0.002 A 
ATOM     26  C   LIG    1       21.082  44.524 189.432  0.00  0.00    +0.031 A 
ATOM     27  C   LIG    1       22.349  43.938 189.362  0.00  0.00    +0.110 A 
ATOM     28  N   LIG    1       23.043  43.389 188.310  0.00  0.00    -0.213 NA
ENDBRANCH  19  20
ENDBRANCH  18  19
ENDBRANCH  17  18
ENDBRANCH   4  17
TORSDOF 6
ENDMDL
MODEL 5
REMARK VINA RESULT:      -8.3      3.310      4.218
REMARK  Name = ZINC000186872603
REMARK                            x       y       z     vdW  Elec       q    Type
REMARK                         _______ _______ _______ _____ _____    ______ ____
ROOT
ATOM      1  N   LIG    1       23.739  45.572 182.934  0.00  0.00    -0.297 N 
ATOM      2  C   LIG    1       24.945  44.769 182.599  0.00  0.00    +0.123 C 
ATOM      3  C   LIG    1       24.539  43.274 182.561  0.00  0.00    +0.103 C 
ATOM      4  N   LIG    1       23.972  42.850 183.875  0.00  0.00    -0.299 NA
ATOM      5  C   LIG    1       22.755  43.669 184.174  0.00  0.00    +0.103 C 
ATOM      6  C   LIG    1       23.080  45.187 184.210  0.00  0.00    +0.123 C 
ENDROOT
BRANCH   1  10
ATOM      7  C   LIG    1       25.057  48.922 179.804  0.00  0.00    +0.066 C 
ATOM      8  C   LIG    1       24.313  48.523 181.055  0.00  0.00    +0.044 A 
ATOM      9  N   LIG    1       24.356  47.264 181.437  0.00  0.00    -0.220 NA
ATOM     10  C   LIG    1       23.694  46.903 182.543  0.00  0.00    +0.218 A 
ATOM     11  N   LIG    1       22.988  47.758 183.293  0.00  0.00    -0.219 NA
ATOM     12  C   LIG    1       22.925  49.030 182.934  0.00  0.00    +0.049 A 
ATOM     13  C   LIG    1       23.593  49.449 181.793  0.00  0.00    +0.046 A 
BRANCH  12  14
ATOM     14  C   LIG    1       22.122  50.017 183.775  0.00  0.00    +0.032 C 
ATOM     15  C   LIG    1       21.516  51.089 182.856  0.00  0.00    +0.014 C 
ATOM     16  C   LIG    1       23.045  50.656 184.824  0.00  0.00    +0.014 C 
ENDBRANCH  12  14
ENDBRANCH   1  10
BRANCH   4  17
ATOM     17  C   LIG    1       24.985  42.834 184.951  0.00  0.00    +0.085 C 
BRANCH  17  18
ATOM     18  C   LIG    1       24.300  42.114 186.127  0.00  0.00    +0.025 C 
BRANCH  18  19
ATOM     19  C   LIG    1       25.122  42.369 187.405  0.00  0.00    +0.097 C 
BRANCH  19  20
ATOM     20  C   LIG    1       24.210  42.966 188.455  0.00  0.00    +0.197 A 
ATOM     21  O   LIG    1       22.962  43.369 188.092  0.00  0.00    -0.440 OA
ATOM     22  C   LIG    1       22.413  43.832 189.219  0.00  0.00    +0.155 A 
ATOM     23  C   LIG    1       21.144  44.368 189.429  0.00  0.00    +0.048 A 
ATOM     24  C   LIG    1       20.824  44.778 190.720  0.00  0.00    +0.004 A 
ATOM     25  C   LIG    1       21.765  44.648 191.763  0.00  0.00    +0.002 A 
ATOM     26  C   LIG    1       23.026  44.107 191.518  0.00  0.00    +0.031 A 
ATOM     27  C   LIG    1       23.342  43.695 190.221  0.00  0.00    +0.110 A 
ATOM     28  N   LIG    1       24.482  43.135 189.695  0.00  0.00    -0.213 NA
ENDBRANCH  19  20
ENDBRANCH  18  19
ENDBRANCH  17  18
ENDBRANCH   4  17
TORSDOF 6
ENDMDL
MODEL 6
REMARK VINA RESULT:      -8.2     24.065     27.239
REMARK  Name = ZINC000186872603
REMARK                            x       y       z     vdW  Elec       q    Type
REMARK                         _______ _______ _______ _____ _____    ______ ____
ROOT
ATOM      1  N   LIG    1       18.047  38.525 209.623  0.00  0.00    -0.297 N 
ATOM      2  C   LIG    1       19.143  38.776 210.596  0.00  0.00    +0.123 C 
ATOM      3  C   LIG    1       19.299  40.309 210.766  0.00  0.00    +0.103 C 
ATOM      4  N   LIG    1       19.600  40.956 209.455  0.00  0.00    -0.299 NA
ATOM      5  C   LIG    1       18.472  40.693 208.506  0.00  0.00    +0.103 C 
ATOM      6  C   LIG    1       18.241  39.171 208.298  0.00  0.00    +0.123 C 
ENDROOT
BRANCH   1  10
ATOM      7  C   LIG    1       15.874  35.203 212.269  0.00  0.00    +0.066 C 
ATOM      8  C   LIG    1       16.331  35.707 210.922  0.00  0.00    +0.044 A 
ATOM      9  N   LIG    1       16.973  36.856 210.866  0.00  0.00    -0.220 NA
ATOM     10  C   LIG    1       17.376  37.310 209.673  0.00  0.00    +0.218 A 
ATOM     11  N   LIG    1       17.165  36.657 208.524  0.00  0.00    -0.219 NA
ATOM     12  C   LIG    1       16.521  35.502 208.548  0.00  0.00    +0.049 A 
ATOM     13  C   LIG    1       16.082  34.993 209.761  0.00  0.00    +0.046 A 
BRANCH  12  14
ATOM     14  C   LIG    1       16.269  34.746 207.247  0.00  0.00    +0.032 C 
ATOM     15  C   LIG    1       15.533  33.434 207.558  0.00  0.00    +0.014 C 
ATOM     16  C   LIG    1       17.613  34.467 206.556  0.00  0.00    +0.014 C 
ENDBRANCH  12  14
ENDBRANCH   1  10
BRANCH   4  17
ATOM     17  C   LIG    1       20.938  40.597 208.939  0.00  0.00    +0.085 C 
BRANCH  17  18
ATOM     18  C   LIG    1       21.927  41.262 209.914  0.00  0.00    +0.025 C 
BRANCH  18  19
ATOM     19  C   LIG    1       23.316  41.307 209.248  0.00  0.00    +0.097 C 
BRANCH  19  20
ATOM     20  C   LIG    1       23.731  42.754 209.094  0.00  0.00    +0.197 A 
ATOM     21  O   LIG    1       24.335  43.148 207.940  0.00  0.00    -0.440 OA
ATOM     22  C   LIG    1       24.566  44.454 208.105  0.00  0.00    +0.155 A 
ATOM     23  C   LIG    1       25.162  45.364 207.234  0.00  0.00    +0.048 A 
ATOM     24  C   LIG    1       25.278  46.683 207.662  0.00  0.00    +0.004 A 
ATOM     25  C   LIG    1       24.805  47.063 208.934  0.00  0.00    +0.002 A 
ATOM     26  C   LIG    1       24.214  46.128 209.781  0.00  0.00    +0.031 A 
ATOM     27  C   LIG    1       24.097  44.806 209.347  0.00  0.00    +0.110 A 
ATOM     28  N   LIG    1       23.567  43.691 209.953  0.00  0.00    -0.213 NA
ENDBRANCH  19  20
ENDBRANCH  18  19
ENDBRANCH  17  18
ENDBRANCH   4  17
TORSDOF 6
ENDMDL
MODEL 7
REMARK VINA RESULT:      -8.2     26.014     27.315
REMARK  Name = ZINC000186872603
REMARK                            x       y       z     vdW  Elec       q    Type
REMARK                         _______ _______ _______ _____ _____    ______ ____
ROOT
ATOM      1  N   LIG    1       30.386  18.134 184.469  0.00  0.00    -0.297 N 
ATOM      2  C   LIG    1       30.534  17.835 185.918  0.00  0.00    +0.123 C 
ATOM      3  C   LIG    1       31.176  19.067 186.605  0.00  0.00    +0.103 C 
ATOM      4  N   LIG    1       32.501  19.379 185.993  0.00  0.00    -0.299 NA
ATOM      5  C   LIG    1       32.311  19.688 184.540  0.00  0.00    +0.103 C 
ATOM      6  C   LIG    1       31.653  18.502 183.784  0.00  0.00    +0.123 C 
ENDROOT
BRANCH   1  10
ATOM      7  C   LIG    1       26.145  15.951 184.428  0.00  0.00    +0.066 C 
ATOM      8  C   LIG    1       27.387  16.406 183.701  0.00  0.00    +0.044 A 
ATOM      9  N   LIG    1       28.314  17.045 184.383  0.00  0.00    -0.220 NA
ATOM     10  C   LIG    1       29.415  17.456 183.743  0.00  0.00    +0.218 A 
ATOM     11  N   LIG    1       29.632  17.249 182.439  0.00  0.00    -0.219 NA
ATOM     12  C   LIG    1       28.718  16.612 181.727  0.00  0.00    +0.049 A 
ATOM     13  C   LIG    1       27.559  16.170 182.347  0.00  0.00    +0.046 A 
BRANCH  12  14
ATOM     14  C   LIG    1       28.947  16.371 180.238  0.00  0.00    +0.032 C 
ATOM     15  C   LIG    1       30.391  16.756 179.880  0.00  0.00    +0.014 C 
ATOM     16  C   LIG    1       27.944  17.207 179.429  0.00  0.00    +0.014 C 
ENDBRANCH  12  14
ENDBRANCH   1  10
BRANCH   4  17
ATOM     17  C   LIG    1       33.516  18.344 186.278  0.00  0.00    +0.085 C 
BRANCH  17  18
ATOM     18  C   LIG    1       34.236  18.836 187.547  0.00  0.00    +0.025 C 
BRANCH  18  19
ATOM     19  C   LIG    1       35.202  19.970 187.154  0.00  0.00    +0.097 C 
BRANCH  19  20
ATOM     20  C   LIG    1       35.901  20.464 188.403  0.00  0.00    +0.197 A 
ATOM     21  O   LIG    1       37.259  20.551 188.408  0.00  0.00    -0.440 OA
ATOM     22  C   LIG    1       37.566  21.016 189.622  0.00  0.00    +0.155 A 
ATOM     23  C   LIG    1       38.815  21.299 190.171  0.00  0.00    +0.048 A 
ATOM     24  C   LIG    1       38.850  21.781 191.476  0.00  0.00    +0.004 A 
ATOM     25  C   LIG    1       37.654  21.969 192.199  0.00  0.00    +0.002 A 
ATOM     26  C   LIG    1       36.421  21.677 191.620  0.00  0.00    +0.031 A 
ATOM     27  C   LIG    1       36.390  21.194 190.309  0.00  0.00    +0.110 A 
ATOM     28  N   LIG    1       35.342  20.832 189.495  0.00  0.00    -0.213 NA
ENDBRANCH  19  20
ENDBRANCH  18  19
ENDBRANCH  17  18
ENDBRANCH   4  17
TORSDOF 6
ENDMDL
MODEL 8
REMARK VINA RESULT:      -8.2      6.976     11.951
REMARK  Name = ZINC000186872603
REMARK                            x       y       z     vdW  Elec       q    Type
REMARK                         _______ _______ _______ _____ _____    ______ ____
ROOT
ATOM      1  N   LIG    1       19.957  47.422 187.781  0.00  0.00    -0.297 N 
ATOM      2  C   LIG    1       19.208  48.665 188.103  0.00  0.00    +0.123 C 
ATOM      3  C   LIG    1       18.199  48.935 186.958  0.00  0.00    +0.103 C 
ATOM      4  N   LIG    1       18.909  49.071 185.653  0.00  0.00    -0.299 NA
ATOM      5  C   LIG    1       19.641  47.800 185.355  0.00  0.00    +0.103 C 
ATOM      6  C   LIG    1       20.662  47.451 186.472  0.00  0.00    +0.123 C 
ENDROOT
BRANCH   1  10
ATOM      7  C   LIG    1       19.951  46.306 192.419  0.00  0.00    +0.066 C 
ATOM      8  C   LIG    1       20.539  46.147 191.038  0.00  0.00    +0.044 A 
ATOM      9  N   LIG    1       20.011  46.837 190.048  0.00  0.00    -0.220 NA
ATOM     10  C   LIG    1       20.524  46.695 188.820  0.00  0.00    +0.218 A 
ATOM     11  N   LIG    1       21.554  45.889 188.538  0.00  0.00    -0.219 NA
ATOM     12  C   LIG    1       22.104  45.182 189.511  0.00  0.00    +0.049 A 
ATOM     13  C   LIG    1       21.604  45.294 190.800  0.00  0.00    +0.046 A 
BRANCH  12  14
ATOM     14  C   LIG    1       23.277  44.255 189.207  0.00  0.00    +0.032 C 
ATOM     15  C   LIG    1       22.841  43.210 188.168  0.00  0.00    +0.014 C 
ATOM     16  C   LIG    1       23.735  43.574 190.506  0.00  0.00    +0.014 C 
ENDBRANCH  12  14
ENDBRANCH   1  10
BRANCH   4  17
ATOM     17  C   LIG    1       19.739  50.293 185.584  0.00  0.00    +0.085 C 
BRANCH  17  18
ATOM     18  C   LIG    1       18.852  51.332 184.875  0.00  0.00    +0.025 C 
BRANCH  18  19
ATOM     19  C   LIG    1       18.089  50.630 183.736  0.00  0.00    +0.097 C 
BRANCH  19  20
ATOM     20  C   LIG    1       18.604  51.156 182.413  0.00  0.00    +0.197 A 
ATOM     21  O   LIG    1       19.929  51.436 182.286  0.00  0.00    -0.440 OA
ATOM     22  C   LIG    1       20.067  51.864 181.027  0.00  0.00    +0.155 A 
ATOM     23  C   LIG    1       21.214  52.284 180.357  0.00  0.00    +0.048 A 
ATOM     24  C   LIG    1       21.075  52.683 179.031  0.00  0.00    +0.004 A 
ATOM     25  C   LIG    1       19.811  52.656 178.408  0.00  0.00    +0.002 A 
ATOM     26  C   LIG    1       18.683  52.230 179.107  0.00  0.00    +0.031 A 
ATOM     27  C   LIG    1       18.827  51.829 180.437  0.00  0.00    +0.110 A 
ATOM     28  N   LIG    1       17.913  51.368 181.355  0.00  0.00    -0.213 NA
ENDBRANCH  19  20
ENDBRANCH  18  19
ENDBRANCH  17  18
ENDBRANCH   4  17
TORSDOF 6
ENDMDL
MODEL 9
REMARK VINA RESULT:      -8.0     23.900     26.552
REMARK  Name = ZINC000186872603
REMARK                            x       y       z     vdW  Elec       q    Type
REMARK                         _______ _______ _______ _____ _____    ______ ____
ROOT
ATOM      1  N   LIG    1       23.255  41.354 209.666  0.00  0.00    -0.297 N 
ATOM      2  C   LIG    1       23.399  40.281 210.685  0.00  0.00    +0.123 C 
ATOM      3  C   LIG    1       22.616  39.037 210.195  0.00  0.00    +0.103 C 
ATOM      4  N   LIG    1       21.178  39.371 209.983  0.00  0.00    -0.299 NA
ATOM      5  C   LIG    1       21.069  40.444 208.943  0.00  0.00    +0.103 C 
ATOM      6  C   LIG    1       21.848  41.723 209.357  0.00  0.00    +0.123 C 
ENDROOT
BRANCH   1  10
ATOM      7  C   LIG    1       27.297  43.194 211.408  0.00  0.00    +0.066 C 
ATOM      8  C   LIG    1       26.162  43.241 210.414  0.00  0.00    +0.044 A 
ATOM      9  N   LIG    1       25.233  42.310 210.478  0.00  0.00    -0.220 NA
ATOM     10  C   LIG    1       24.227  42.343 209.595  0.00  0.00    +0.218 A 
ATOM     11  N   LIG    1       24.108  43.279 208.647  0.00  0.00    -0.219 NA
ATOM     12  C   LIG    1       25.027  44.226 208.556  0.00  0.00    +0.049 A 
ATOM     13  C   LIG    1       26.089  44.230 209.447  0.00  0.00    +0.046 A 
BRANCH  12  14
ATOM     14  C   LIG    1       24.908  45.299 207.478  0.00  0.00    +0.032 C 
ATOM     15  C   LIG    1       25.547  46.601 207.987  0.00  0.00    +0.014 C 
ATOM     16  C   LIG    1       23.424  45.516 207.140  0.00  0.00    +0.014 C 
ENDBRANCH  12  14
ENDBRANCH   1  10
BRANCH   4  17
ATOM     17  C   LIG    1       20.470  39.663 211.247  0.00  0.00    +0.085 C 
BRANCH  17  18
ATOM     18  C   LIG    1       19.948  38.297 211.730  0.00  0.00    +0.025 C 
BRANCH  18  19
ATOM     19  C   LIG    1       18.417  38.385 211.884  0.00  0.00    +0.097 C 
BRANCH  19  20
ATOM     20  C   LIG    1       17.778  37.406 210.922  0.00  0.00    +0.197 A 
ATOM     21  O   LIG    1       17.896  37.624 209.584  0.00  0.00    -0.440 OA
ATOM     22  C   LIG    1       17.247  36.604 209.014  0.00  0.00    +0.155 A 
ATOM     23  C   LIG    1       17.054  36.323 207.663  0.00  0.00    +0.048 A 
ATOM     24  C   LIG    1       16.332  35.178 207.341  0.00  0.00    +0.004 A 
ATOM     25  C   LIG    1       15.822  34.347 208.360  0.00  0.00    +0.002 A 
ATOM     26  C   LIG    1       16.033  34.657 209.702  0.00  0.00    +0.031 A 
ATOM     27  C   LIG    1       16.761  35.806 210.021  0.00  0.00    +0.110 A 
ATOM     28  N   LIG    1       17.121  36.350 211.231  0.00  0.00    -0.213 NA
ENDBRANCH  19  20
ENDBRANCH  18  19
ENDBRANCH  17  18
ENDBRANCH   4  17
TORSDOF 6
ENDMDL
