REMARK VINA RESULT:      -8.1     28.581     30.531
REMARK  Name = ZINC000006086011
REMARK                            x       y       z     vdW  Elec       q    Type
REMARK                         _______ _______ _______ _____ _____    ______ ____
ROOT
ATOM      1  N   LIG    1       22.138  45.804 181.925  0.00  0.00    -0.286 NA
ATOM      2  C   LIG    1       21.172  45.817 180.805  0.00  0.00    +0.106 C 
ENDROOT
BRANCH   1   3
ATOM      3  C   LIG    1       23.181  44.712 181.797  0.00  0.00    +0.140 C 
ATOM      4  C   LIG    1       22.523  43.379 181.368  0.00  0.00    +0.034 C 
BRANCH   3   7
ATOM      5  N   LIG    1       23.608  43.401 183.815  0.00  0.00    -0.281 N 
ATOM      6  H   LIG    1       22.957  42.788 183.296  0.00  0.00    +0.155 HD
ATOM      7  C   LIG    1       23.920  44.554 183.143  0.00  0.00    +0.234 C 
ATOM      8  O   LIG    1       24.741  45.339 183.578  0.00  0.00    -0.274 OA
BRANCH   5  10
ATOM      9  C   LIG    1       25.208  42.027 184.954  0.00  0.00    +0.141 A 
ATOM     10  C   LIG    1       24.087  42.866 185.040  0.00  0.00    +0.076 A 
ATOM     11  C   LIG    1       23.502  43.125 186.281  0.00  0.00    +0.027 A 
ATOM     12  C   LIG    1       24.046  42.553 187.428  0.00  0.00    +0.002 A 
ATOM     13  C   LIG    1       25.164  41.723 187.343  0.00  0.00    +0.004 A 
ATOM     14  C   LIG    1       25.747  41.456 186.106  0.00  0.00    +0.047 A 
BRANCH   9  16
ATOM     15  C   LIG    1       27.009  42.363 183.223  0.00  0.00    +0.277 C 
ATOM     16  O   LIG    1       25.761  41.799 183.695  0.00  0.00    -0.493 OA
ENDBRANCH   9  16
ENDBRANCH   5  10
ENDBRANCH   3   7
ENDBRANCH   1   3
BRANCH   1  17
ATOM     17  C   LIG    1       21.436  45.825 183.265  0.00  0.00    +0.181 C 
BRANCH  17  18
ATOM     18  C   LIG    1       21.330  47.260 183.776  0.00  0.00    +0.231 C 
ATOM     19  N   LIG    1       20.096  47.856 183.684  0.00  0.00    -0.284 N 
ATOM     20  H   LIG    1       19.339  47.266 183.308  0.00  0.00    +0.155 HD
ATOM     21  O   LIG    1       22.288  47.865 184.216  0.00  0.00    -0.274 OA
BRANCH  19  22
ATOM     22  C   LIG    1       19.758  49.193 183.999  0.00  0.00    +0.041 A 
ATOM     23  C   LIG    1       19.097  49.449 185.240  0.00  0.00    +0.003 A 
ATOM     24  C   LIG    1       18.685  48.422 186.135  0.00  0.00    +0.010 A 
ATOM     25  C   LIG    1       18.085  48.727 187.333  0.00  0.00    +0.001 A 
ATOM     26  C   LIG    1       17.854  50.069 187.690  0.00  0.00    +0.001 A 
ATOM     27  C   LIG    1       18.221  51.084 186.838  0.00  0.00    +0.008 A 
ATOM     28  C   LIG    1       18.840  50.798 185.595  0.00  0.00    -0.016 A 
ATOM     29  C   LIG    1       19.206  51.838 184.702  0.00  0.00    +0.008 A 
ATOM     30  C   LIG    1       19.822  51.555 183.504  0.00  0.00    +0.002 A 
ATOM     31  C   LIG    1       20.107  50.225 183.147  0.00  0.00    +0.024 A 
ENDBRANCH  19  22
ENDBRANCH  17  18
ENDBRANCH   1  17
TORSDOF 7
