REMARK VINA RESULT:      -7.2      2.431      5.524
REMARK  Name = ZINC000000622958
REMARK                            x       y       z     vdW  Elec       q    Type
REMARK                         _______ _______ _______ _____ _____    ______ ____
ROOT
ATOM      1  C   LIG    1       23.715  44.803 180.596  0.00  0.00    +0.271 C 
ATOM      2  N   LIG    1       23.340  43.580 181.259  0.00  0.00    -0.157 N 
ATOM      3  C   LIG    1       22.527  42.843 180.535  0.00  0.00    +0.250 C 
ATOM      4  C   LIG    1       21.947  41.501 180.956  0.00  0.00    +0.124 C 
ATOM      5  C   LIG    1       22.628  40.409 180.099  0.00  0.00    +0.012 C 
ATOM      6  C   LIG    1       21.987  40.372 178.699  0.00  0.00    +0.004 C 
ATOM      7  C   LIG    1       22.255  41.594 177.795  0.00  0.00    +0.045 C 
ATOM      8  C   LIG    1       21.476  42.819 178.314  0.00  0.00    +0.236 C 
ATOM      9  N   LIG    1       22.301  43.411 179.378  0.00  0.00    -0.258 N 
ATOM     10  C   LIG    1       23.071  44.662 179.193  0.00  0.00    +0.323 C 
ENDROOT
BRANCH   1  11
ATOM     11  C   LIG    1       25.238  44.951 180.514  0.00  0.00    +0.034 A 
ATOM     12  C   LIG    1       25.890  45.867 181.360  0.00  0.00    +0.060 A 
ATOM     13  C   LIG    1       27.266  45.996 181.271  0.00  0.00    +0.167 A 
ATOM     14  O   LIG    1       28.051  46.823 181.994  0.00  0.00    -0.453 OA
ATOM     15  C   LIG    1       29.439  46.585 181.522  0.00  0.00    +0.466 C 
ATOM     16  O   LIG    1       29.317  45.544 180.474  0.00  0.00    -0.453 OA
ATOM     17  C   LIG    1       28.002  45.252 180.385  0.00  0.00    +0.166 A 
ATOM     18  C   LIG    1       27.395  44.338 179.539  0.00  0.00    +0.050 A 
ATOM     19  C   LIG    1       26.007  44.191 179.607  0.00  0.00    +0.014 A 
ENDBRANCH   1  11
BRANCH   2  20
ATOM     20  C   LIG    1       23.860  43.204 182.525  0.00  0.00    +0.124 A 
ATOM     21  C   LIG    1       25.016  42.425 182.592  0.00  0.00    +0.050 A 
ATOM     22  C   LIG    1       25.525  42.074 183.839  0.00  0.00    +0.024 A 
ATOM     23  C   LIG    1       24.879  42.502 185.003  0.00  0.00    +0.041 A 
ATOM     24 CL   LIG    1       25.516  42.064 186.551  0.00  0.00    -0.084 Cl
ATOM     25  C   LIG    1       23.721  43.282 184.923  0.00  0.00    +0.024 A 
ATOM     26  C   LIG    1       23.207  43.636 183.680  0.00  0.00    +0.050 A 
ENDBRANCH   2  20
BRANCH   1  27
ATOM     27  O   LIG    1       23.090  45.852 181.324  0.00  0.00    -0.347 OA
ATOM     28  H   LIG    1       22.469  46.298 180.728  0.00  0.00    +0.215 HD
ENDBRANCH   1  27
TORSDOF 3
