REMARK VINA RESULT:      -8.7     25.783     27.659
REMARK  Name = ZINC000186872603
REMARK                            x       y       z     vdW  Elec       q    Type
REMARK                         _______ _______ _______ _____ _____    ______ ____
ROOT
ATOM      1  N   LIG    1       30.659  17.845 185.647  0.00  0.00    -0.297 N 
ATOM      2  C   LIG    1       31.448  18.001 184.396  0.00  0.00    +0.123 C 
ATOM      3  C   LIG    1       32.952  17.889 184.752  0.00  0.00    +0.103 C 
ATOM      4  N   LIG    1       33.335  18.930 185.750  0.00  0.00    -0.299 NA
ATOM      5  C   LIG    1       32.532  18.734 186.999  0.00  0.00    +0.103 C 
ATOM      6  C   LIG    1       31.007  18.815 186.718  0.00  0.00    +0.123 C 
ENDROOT
BRANCH   1  10
ATOM      7  C   LIG    1       27.103  16.240 182.902  0.00  0.00    +0.066 C 
ATOM      8  C   LIG    1       27.630  16.633 184.261  0.00  0.00    +0.044 A 
ATOM      9  N   LIG    1       28.872  17.058 184.354  0.00  0.00    -0.220 NA
ATOM     10  C   LIG    1       29.346  17.402 185.557  0.00  0.00    +0.218 A 
ATOM     11  N   LIG    1       28.622  17.342 186.681  0.00  0.00    -0.219 NA
ATOM     12  C   LIG    1       27.372  16.915 186.620  0.00  0.00    +0.049 A 
ATOM     13  C   LIG    1       26.838  16.545 185.395  0.00  0.00    +0.046 A 
BRANCH  12  14
ATOM     14  C   LIG    1       26.533  16.837 187.892  0.00  0.00    +0.032 C 
ATOM     15  C   LIG    1       27.453  16.987 189.114  0.00  0.00    +0.014 C 
ATOM     16  C   LIG    1       25.794  15.489 187.929  0.00  0.00    +0.014 C 
ENDBRANCH  12  14
ENDBRANCH   1  10
BRANCH   4  17
ATOM     17  C   LIG    1       33.285  20.298 185.192  0.00  0.00    +0.085 C 
BRANCH  17  18
ATOM     18  C   LIG    1       34.434  21.050 185.888  0.00  0.00    +0.025 C 
BRANCH  18  19
ATOM     19  C   LIG    1       35.680  20.144 185.894  0.00  0.00    +0.097 C 
BRANCH  19  20
ATOM     20  C   LIG    1       36.537  20.510 187.087  0.00  0.00    +0.197 A 
ATOM     21  O   LIG    1       35.997  20.439 188.333  0.00  0.00    -0.440 OA
ATOM     22  C   LIG    1       36.986  20.807 189.154  0.00  0.00    +0.155 A 
ATOM     23  C   LIG    1       36.989  20.913 190.543  0.00  0.00    +0.048 A 
ATOM     24  C   LIG    1       38.169  21.323 191.155  0.00  0.00    +0.004 A 
ATOM     25  C   LIG    1       39.309  21.618 190.379  0.00  0.00    +0.002 A 
ATOM     26  C   LIG    1       39.272  21.502 188.991  0.00  0.00    +0.031 A 
ATOM     27  C   LIG    1       38.086  21.087 188.381  0.00  0.00    +0.110 A 
ATOM     28  N   LIG    1       37.762  20.884 187.060  0.00  0.00    -0.213 NA
ENDBRANCH  19  20
ENDBRANCH  18  19
ENDBRANCH  17  18
ENDBRANCH   4  17
TORSDOF 6
