REMARK VINA RESULT:      -8.0     23.708     25.463
REMARK  Name = ZINC000000593415
REMARK                            x       y       z     vdW  Elec       q    Type
REMARK                         _______ _______ _______ _____ _____    ______ ____
ROOT
ATOM      1  C   LIG    1       17.486  38.356 209.005  0.00  0.00    -0.043 A 
ATOM      2  C   LIG    1       18.128  38.359 210.246  0.00  0.00    +0.006 A 
ATOM      3  C   LIG    1       19.257  39.142 210.463  0.00  0.00    +0.023 A 
ATOM      4  C   LIG    1       19.757  39.929 209.428  0.00  0.00    +0.034 A 
ATOM      5  C   LIG    1       19.123  39.949 208.186  0.00  0.00    +0.023 A 
ATOM      6  C   LIG    1       17.996  39.162 207.978  0.00  0.00    +0.006 A 
ENDROOT
BRANCH   4   7
ATOM      7  N   LIG    1       20.902  40.716 209.694  0.00  0.00    -0.282 N 
ATOM      8  H   LIG    1       20.738  41.687 209.979  0.00  0.00    +0.155 HD
ATOM      9  C   LIG    1       22.215  40.285 209.720  0.00  0.00    +0.248 C 
ATOM     10  O   LIG    1       22.449  39.090 209.607  0.00  0.00    -0.270 OA
BRANCH   9  11
ATOM     11  C   LIG    1       23.271  41.281 209.927  0.00  0.00    +0.042 A 
ATOM     12  C   LIG    1       23.920  41.427 211.168  0.00  0.00    +0.051 A 
ATOM     13  C   LIG    1       24.924  42.379 211.310  0.00  0.00    +0.127 A 
ATOM     14  F   LIG    1       25.537  42.497 212.505  0.00  0.00    -0.205 F 
ATOM     15  C   LIG    1       25.316  43.209 210.270  0.00  0.00    +0.076 A 
ATOM     16  C   LIG    1       24.658  43.061 209.059  0.00  0.00    +0.127 A 
ATOM     17  F   LIG    1       25.011  43.855 208.027  0.00  0.00    -0.205 F 
ATOM     18  C   LIG    1       23.650  42.122 208.868  0.00  0.00    +0.051 A 
ENDBRANCH   9  11
ENDBRANCH   4   7
BRANCH   1  19
ATOM     19  C   LIG    1       16.279  37.431 208.808  0.00  0.00    +0.031 C 
ATOM     20  C   LIG    1       15.021  38.217 208.392  0.00  0.00    +0.014 C 
BRANCH  19  21
ATOM     21  C   LIG    1       16.650  36.325 207.792  0.00  0.00    +0.113 C 
BRANCH  21  22
ATOM     22  N   LIG    1       15.438  35.577 207.482  0.00  0.00    -0.194 NA
ATOM     23  H   LIG    1       15.053  35.960 206.616  0.00  0.00    +0.148 HD
BRANCH  22  24
ATOM     24  S   LIG    1       15.545  33.950 207.451  0.00  0.00    +0.032 S 
ATOM     25  O   LIG    1       14.452  33.452 206.692  0.00  0.00    -0.158 OA
ATOM     26  O   LIG    1       16.849  33.585 207.019  0.00  0.00    -0.158 OA
BRANCH  24  28
ATOM     27  C   LIG    1       14.578  34.424 210.096  0.00  0.00    +0.033 C 
ATOM     28  C   LIG    1       15.339  33.437 209.172  0.00  0.00    +0.142 C 
ATOM     29  C   LIG    1       14.626  32.078 209.385  0.00  0.00    +0.033 C 
ENDBRANCH  24  28
ENDBRANCH  22  24
ENDBRANCH  21  22
ENDBRANCH  19  21
ENDBRANCH   1  19
TORSDOF 7
