REMARK VINA RESULT:      -7.5     28.962     30.337
REMARK  Name = ZINC000006084415
REMARK                            x       y       z     vdW  Elec       q    Type
REMARK                         _______ _______ _______ _____ _____    ______ ____
ROOT
ATOM      1  O   LIG    1       31.498  14.260 196.781  0.00  0.00    -0.451 OA
ENDROOT
BRANCH   1   2
ATOM      2  C   LIG    1       31.478  14.713 195.502  0.00  0.00    +0.356 C 
ATOM      3  O   LIG    1       30.515  14.413 194.810  0.00  0.00    -0.243 OA
BRANCH   2   7
ATOM      4  C   LIG    1       34.288  16.987 194.720  0.00  0.00    +0.041 A 
ATOM      5  C   LIG    1       33.229  16.633 195.588  0.00  0.00    -0.008 A 
ATOM      6  C   LIG    1       32.839  17.360 196.863  0.00  0.00    +0.047 C 
ATOM      7  C   LIG    1       32.609  15.517 195.081  0.00  0.00    +0.128 A 
ATOM      8  N   LIG    1       33.272  15.192 193.926  0.00  0.00    -0.352 N 
ATOM      9  H   LIG    1       33.015  14.392 193.317  0.00  0.00    +0.166 HD
ATOM     10  C   LIG    1       34.281  16.057 193.689  0.00  0.00    +0.024 A 
ATOM     11  C   LIG    1       35.133  15.865 192.448  0.00  0.00    +0.064 C 
BRANCH   4  13
ATOM     12  C   LIG    1       36.384  18.078 195.823  0.00  0.00    +0.091 C 
ATOM     13  C   LIG    1       35.197  18.124 194.893  0.00  0.00    +0.162 C 
ATOM     14  O   LIG    1       35.046  19.170 194.296  0.00  0.00    -0.292 OA
ENDBRANCH   4  13
ENDBRANCH   2   7
ENDBRANCH   1   2
BRANCH   1  15
ATOM     15  C   LIG    1       30.245  14.096 197.538  0.00  0.00    +0.328 C 
BRANCH  15  16
ATOM     16  C   LIG    1       29.914  15.443 198.182  0.00  0.00    +0.256 C 
ATOM     17  N   LIG    1       28.850  16.212 197.827  0.00  0.00    -0.266 N 
ATOM     18  H   LIG    1       28.695  17.005 198.461  0.00  0.00    +0.156 HD
ATOM     19  O   LIG    1       30.604  15.930 199.055  0.00  0.00    -0.272 OA
BRANCH  17  20
ATOM     20  C   LIG    1       27.949  16.047 196.762  0.00  0.00    +0.144 A 
ATOM     21  C   LIG    1       28.169  16.737 195.552  0.00  0.00    +0.082 A 
ATOM     22 CL   LIG    1       29.524  17.803 195.356  0.00  0.00    -0.080 Cl
ATOM     23  C   LIG    1       27.284  16.550 194.503  0.00  0.00    +0.045 A 
ATOM     24  C   LIG    1       26.217  15.676 194.696  0.00  0.00    +0.063 A 
ATOM     25 CL   LIG    1       25.096  15.428 193.396  0.00  0.00    -0.082 Cl
ATOM     26  C   LIG    1       26.068  15.013 195.925  0.00  0.00    +0.059 A 
ATOM     27  C   LIG    1       24.925  14.050 196.172  0.00  0.00    +0.067 C 
ATOM     28  N   LIG    1       26.930  15.203 196.932  0.00  0.00    -0.234 NA
ENDBRANCH  17  20
ENDBRANCH  15  16
ENDBRANCH   1  15
TORSDOF 6
