REMARK VINA RESULT:      -8.4      2.120      3.446
REMARK  Name = ZINC000006086009
REMARK                            x       y       z     vdW  Elec       q    Type
REMARK                         _______ _______ _______ _____ _____    ______ ____
ROOT
ATOM      1  N   LIG    1       21.983  45.931 184.310  0.00  0.00    -0.286 NA
ATOM      2  C   LIG    1       22.693  44.632 184.188  0.00  0.00    +0.106 C 
ENDROOT
BRANCH   1   3
ATOM      3  C   LIG    1       21.969  46.667 182.978  0.00  0.00    +0.140 C 
ATOM      4  C   LIG    1       21.447  45.657 181.935  0.00  0.00    +0.034 C 
BRANCH   3   7
ATOM      5  N   LIG    1       21.679  49.117 182.828  0.00  0.00    -0.281 N 
ATOM      6  H   LIG    1       22.706  49.089 182.786  0.00  0.00    +0.155 HD
ATOM      7  C   LIG    1       21.043  47.908 182.962  0.00  0.00    +0.234 C 
ATOM      8  O   LIG    1       19.837  47.864 183.131  0.00  0.00    -0.274 OA
BRANCH   5  10
ATOM      9  C   LIG    1       21.112  51.240 181.862  0.00  0.00    +0.141 A 
ATOM     10  C   LIG    1       21.141  50.417 182.996  0.00  0.00    +0.076 A 
ATOM     11  C   LIG    1       20.647  50.881 184.215  0.00  0.00    +0.027 A 
ATOM     12  C   LIG    1       20.137  52.175 184.300  0.00  0.00    +0.002 A 
ATOM     13  C   LIG    1       20.115  52.999 183.175  0.00  0.00    +0.004 A 
ATOM     14  C   LIG    1       20.600  52.535 181.951  0.00  0.00    +0.047 A 
BRANCH   9  16
ATOM     15  C   LIG    1       21.660  51.463 179.416  0.00  0.00    +0.277 C 
ATOM     16  O   LIG    1       21.611  50.728 180.662  0.00  0.00    -0.493 OA
ENDBRANCH   9  16
ENDBRANCH   5  10
ENDBRANCH   3   7
ENDBRANCH   1   3
BRANCH   1  17
ATOM     17  C   LIG    1       22.578  46.744 185.463  0.00  0.00    +0.181 C 
BRANCH  17  18
ATOM     18  C   LIG    1       21.622  46.749 186.651  0.00  0.00    +0.231 C 
ATOM     19  N   LIG    1       22.104  46.134 187.778  0.00  0.00    -0.284 N 
ATOM     20  H   LIG    1       23.081  45.822 187.663  0.00  0.00    +0.155 HD
ATOM     21  O   LIG    1       20.510  47.233 186.600  0.00  0.00    -0.274 OA
BRANCH  19  22
ATOM     22  C   LIG    1       21.482  45.862 189.021  0.00  0.00    +0.041 A 
ATOM     23  C   LIG    1       22.163  44.979 189.918  0.00  0.00    +0.003 A 
ATOM     24  C   LIG    1       23.390  44.328 189.599  0.00  0.00    +0.010 A 
ATOM     25  C   LIG    1       24.006  43.497 190.505  0.00  0.00    +0.001 A 
ATOM     26  C   LIG    1       23.426  43.270 191.769  0.00  0.00    +0.001 A 
ATOM     27  C   LIG    1       22.238  43.874 192.102  0.00  0.00    +0.008 A 
ATOM     28  C   LIG    1       21.578  44.733 191.187  0.00  0.00    -0.016 A 
ATOM     29  C   LIG    1       20.343  45.346 191.520  0.00  0.00    +0.008 A 
ATOM     30  C   LIG    1       19.709  46.183 190.630  0.00  0.00    +0.002 A 
ATOM     31  C   LIG    1       20.281  46.450 189.373  0.00  0.00    +0.024 A 
ENDBRANCH  19  22
ENDBRANCH  17  18
ENDBRANCH   1  17
TORSDOF 7
