REMARK VINA RESULT:      -7.0     32.298     35.714
REMARK  Name = ZINC000006087402
REMARK                            x       y       z     vdW  Elec       q    Type
REMARK                         _______ _______ _______ _____ _____    ______ ____
ROOT
ATOM      1  C   LIG    1       29.335  21.154 208.029  0.00  0.00    +0.214 C 
ENDROOT
BRANCH   1   7
ATOM      2  C   LIG    1       26.424  24.954 204.721  0.00  0.00    +0.010 C 
ATOM      3  C   LIG    1       27.647  24.009 204.812  0.00  0.00    +0.018 C 
ATOM      4  C   LIG    1       28.499  24.264 206.101  0.00  0.00    +0.115 C 
ATOM      5  C   LIG    1       29.402  23.064 206.411  0.00  0.00    +0.247 C 
ATOM      6  O   LIG    1       30.374  22.622 205.822  0.00  0.00    -0.273 OA
ATOM      7  N   LIG    1       28.936  22.479 207.546  0.00  0.00    -0.215 N 
ATOM      8  C   LIG    1       27.855  23.163 208.026  0.00  0.00    +0.310 C 
ATOM      9  O   LIG    1       27.176  22.825 208.978  0.00  0.00    -0.252 OA
ATOM     10  N   LIG    1       27.639  24.261 207.277  0.00  0.00    -0.285 N 
ATOM     11  H   LIG    1       26.714  24.703 207.304  0.00  0.00    +0.151 HD
ATOM     12  C   LIG    1       29.274  25.608 206.072  0.00  0.00    +0.035 C 
ATOM     13  C   LIG    1       30.135  25.689 204.798  0.00  0.00    +0.003 C 
ATOM     14  C   LIG    1       29.300  25.498 203.526  0.00  0.00    +0.000 C 
ATOM     15  C   LIG    1       28.544  24.161 203.565  0.00  0.00    +0.006 C 
ENDBRANCH   1   7
BRANCH   1  16
ATOM     16  C   LIG    1       28.921  20.119 206.980  0.00  0.00    +0.238 C 
ATOM     17  N   LIG    1       29.851  19.182 206.554  0.00  0.00    -0.267 N 
ATOM     18  O   LIG    1       27.796  20.088 206.496  0.00  0.00    -0.274 OA
BRANCH  17  19
ATOM     19  C   LIG    1       31.220  19.247 206.925  0.00  0.00    +0.010 C 
ATOM     20  C   LIG    1       31.534  18.836 208.354  0.00  0.00    +0.051 C 
ATOM     21  C   LIG    1       32.929  19.392 208.711  0.00  0.00    +0.006 C 
ATOM     22  C   LIG    1       33.912  18.924 207.618  0.00  0.00    +0.004 C 
ATOM     23  C   LIG    1       33.623  19.734 206.334  0.00  0.00    +0.029 C 
ATOM     24  C   LIG    1       32.143  19.622 206.019  0.00  0.00    -0.008 C 
ENDBRANCH  17  19
BRANCH  17  25
ATOM     25  C   LIG    1       29.437  18.139 205.594  0.00  0.00    +0.187 C 
BRANCH  25  26
ATOM     26  C   LIG    1       29.659  16.819 206.304  0.00  0.00    +0.122 A 
ATOM     27  O   LIG    1       28.932  16.496 207.409  0.00  0.00    -0.466 OA
ATOM     28  C   LIG    1       29.354  15.276 207.828  0.00  0.00    +0.195 A 
ATOM     29  C   LIG    1       30.329  14.830 207.007  0.00  0.00    +0.041 A 
ATOM     30  C   LIG    1       30.525  15.814 206.033  0.00  0.00    +0.046 A 
ENDBRANCH  25  26
ENDBRANCH  17  25
ENDBRANCH   1  16
TORSDOF 5
