REMARK VINA RESULT:      -7.9     22.493     24.072
REMARK  Name = ZINC000000593415
REMARK                            x       y       z     vdW  Elec       q    Type
REMARK                         _______ _______ _______ _____ _____    ______ ____
ROOT
ATOM      1  C   LIG    1       23.058  42.650 209.548  0.00  0.00    -0.043 A 
ATOM      2  C   LIG    1       21.833  43.063 210.078  0.00  0.00    +0.006 A 
ATOM      3  C   LIG    1       20.751  42.191 210.138  0.00  0.00    +0.023 A 
ATOM      4  C   LIG    1       20.889  40.890 209.658  0.00  0.00    +0.034 A 
ATOM      5  C   LIG    1       22.107  40.455 209.137  0.00  0.00    +0.023 A 
ATOM      6  C   LIG    1       23.182  41.334 209.081  0.00  0.00    +0.006 A 
ENDROOT
BRANCH   4   7
ATOM      7  N   LIG    1       19.766  40.035 209.745  0.00  0.00    -0.282 N 
ATOM      8  H   LIG    1       19.558  39.639 210.667  0.00  0.00    +0.155 HD
ATOM      9  C   LIG    1       18.852  39.764 208.745  0.00  0.00    +0.248 C 
ATOM     10  O   LIG    1       18.924  40.382 207.692  0.00  0.00    -0.270 OA
BRANCH   9  11
ATOM     11  C   LIG    1       17.804  38.773 209.008  0.00  0.00    +0.042 A 
ATOM     12  C   LIG    1       17.999  37.708 209.909  0.00  0.00    +0.051 A 
ATOM     13  C   LIG    1       16.970  36.801 210.132  0.00  0.00    +0.127 A 
ATOM     14  F   LIG    1       17.176  35.793 211.004  0.00  0.00    -0.205 F 
ATOM     15  C   LIG    1       15.743  36.893 209.492  0.00  0.00    +0.076 A 
ATOM     16  C   LIG    1       15.571  37.939 208.599  0.00  0.00    +0.127 A 
ATOM     17  F   LIG    1       14.392  38.056 207.956  0.00  0.00    -0.205 F 
ATOM     18  C   LIG    1       16.570  38.872 208.344  0.00  0.00    +0.051 A 
ENDBRANCH   9  11
ENDBRANCH   4   7
BRANCH   1  19
ATOM     19  C   LIG    1       24.199  43.670 209.458  0.00  0.00    +0.031 C 
ATOM     20  C   LIG    1       25.491  43.140 210.107  0.00  0.00    +0.014 C 
BRANCH  19  21
ATOM     21  C   LIG    1       24.400  44.073 207.978  0.00  0.00    +0.113 C 
BRANCH  21  22
ATOM     22  N   LIG    1       25.344  45.184 207.941  0.00  0.00    -0.194 NA
ATOM     23  H   LIG    1       26.000  45.004 207.179  0.00  0.00    +0.148 HD
BRANCH  22  24
ATOM     24  S   LIG    1       24.728  46.693 207.890  0.00  0.00    +0.032 S 
ATOM     25  O   LIG    1       25.538  47.469 207.019  0.00  0.00    -0.158 OA
ATOM     26  O   LIG    1       23.343  46.612 207.581  0.00  0.00    -0.158 OA
BRANCH  24  28
ATOM     27  C   LIG    1       23.710  47.093 210.529  0.00  0.00    +0.033 C 
ATOM     28  C   LIG    1       24.910  47.327 209.574  0.00  0.00    +0.142 C 
ATOM     29  C   LIG    1       26.138  46.800 210.358  0.00  0.00    +0.033 C 
ENDBRANCH  24  28
ENDBRANCH  22  24
ENDBRANCH  21  22
ENDBRANCH  19  21
ENDBRANCH   1  19
TORSDOF 7
