REMARK VINA RESULT:      -6.5     32.202     35.561
REMARK  Name = ZINC000000538627
REMARK                            x       y       z     vdW  Elec       q    Type
REMARK                         _______ _______ _______ _____ _____    ______ ____
ROOT
ATOM      1  C   LIG    1       19.890  50.159 183.625  0.00  0.00    +0.166 C 
ENDROOT
BRANCH   1   2
ATOM      2  C   LIG    1       18.893  50.749 182.602  0.00  0.00    -0.007 A 
ATOM      3  C   LIG    1       17.647  50.179 182.304  0.00  0.00    +0.007 A 
ATOM      4  C   LIG    1       16.805  50.766 181.363  0.00  0.00    +0.000 A 
ATOM      5  C   LIG    1       17.193  51.928 180.706  0.00  0.00    +0.000 A 
ATOM      6  C   LIG    1       18.424  52.504 180.990  0.00  0.00    +0.000 A 
ATOM      7  C   LIG    1       19.267  51.917 181.930  0.00  0.00    +0.007 A 
ENDBRANCH   1   2
BRANCH   1   8
ATOM      8  C   LIG    1       19.181  50.041 184.992  0.00  0.00    -0.007 A 
ATOM      9  C   LIG    1       19.062  48.805 185.639  0.00  0.00    +0.007 A 
ATOM     10  C   LIG    1       18.396  48.699 186.856  0.00  0.00    +0.000 A 
ATOM     11  C   LIG    1       17.840  49.827 187.447  0.00  0.00    +0.000 A 
ATOM     12  C   LIG    1       17.955  51.063 186.821  0.00  0.00    +0.000 A 
ATOM     13  C   LIG    1       18.620  51.169 185.604  0.00  0.00    +0.007 A 
ENDBRANCH   1   8
BRANCH   1  15
ATOM     14  C   LIG    1       21.865  51.078 184.940  0.00  0.00    +0.195 C 
ATOM     15  O   LIG    1       21.008  51.130 183.755  0.00  0.00    -0.363 OA
ENDBRANCH   1  15
BRANCH   1  16
ATOM     16  C   LIG    1       20.446  48.770 183.198  0.00  0.00    +0.325 C 
BRANCH  16  17
ATOM     17  C   LIG    1       20.906  48.856 181.754  0.00  0.00    +0.350 C 
ATOM     18  O   LIG    1       20.428  48.162 180.862  0.00  0.00    -0.247 OA
BRANCH  17  19
ATOM     19  O   LIG    1       21.935  49.685 181.415  0.00  0.00    -0.478 OA
ATOM     20  H   LIG    1       21.655  50.329 180.759  0.00  0.00    +0.295 HD
ENDBRANCH  17  19
ENDBRANCH  16  17
BRANCH  16  21
ATOM     21  O   LIG    1       21.612  48.405 184.037  0.00  0.00    -0.444 OA
BRANCH  21  22
ATOM     22  C   LIG    1       22.463  47.425 183.673  0.00  0.00    +0.319 A 
ATOM     23  N   LIG    1       22.060  46.161 183.772  0.00  0.00    -0.200 NA
ATOM     24  C   LIG    1       22.896  45.211 183.396  0.00  0.00    +0.045 A 
ATOM     25  C   LIG    1       22.443  43.776 183.503  0.00  0.00    +0.066 C 
ATOM     26  C   LIG    1       24.159  45.549 182.932  0.00  0.00    +0.046 A 
ATOM     27  C   LIG    1       24.516  46.889 182.866  0.00  0.00    +0.045 A 
ATOM     28  C   LIG    1       25.868  47.328 182.360  0.00  0.00    +0.066 C 
ATOM     29  N   LIG    1       23.653  47.816 183.239  0.00  0.00    -0.200 NA
ENDBRANCH  21  22
ENDBRANCH  16  21
ENDBRANCH   1  16
TORSDOF 8
