MODEL 1
REMARK VINA RESULT:      -8.1      0.000      0.000
REMARK  Name = ZINC000022625070
REMARK                            x       y       z     vdW  Elec       q    Type
REMARK                         _______ _______ _______ _____ _____    ______ ____
ROOT
ATOM      1  C   LIG    1       27.953  32.403 202.772  0.00  0.00    +0.171 A 
ATOM      2  C   LIG    1       26.776  32.859 202.179  0.00  0.00    +0.032 A 
ATOM      3  C   LIG    1       25.307  32.547 202.406  0.00  0.00    +0.046 C 
ATOM      4  C   LIG    1       24.480  33.811 202.041  0.00  0.00    +0.040 C 
ATOM      5  C   LIG    1       24.901  34.391 200.682  0.00  0.00    -0.036 A 
ATOM      6  C   LIG    1       26.254  34.370 200.302  0.00  0.00    +0.027 A 
ATOM      7  C   LIG    1       26.659  34.975 199.111  0.00  0.00    +0.057 A 
ATOM      8  C   LIG    1       25.704  35.581 198.295  0.00  0.00    +0.121 A 
ATOM      9  C   LIG    1       24.359  35.592 198.655  0.00  0.00    +0.046 A 
ATOM     10  C   LIG    1       23.962  35.001 199.852  0.00  0.00    +0.008 A 
ATOM     11  C   LIG    1       27.157  33.675 201.187  0.00  0.00    +0.171 A 
ATOM     12  O   LIG    1       28.496  33.712 201.180  0.00  0.00    -0.354 OA
ATOM     13  N   LIG    1       28.979  32.938 202.147  0.00  0.00    -0.073 NA
ENDROOT
BRANCH   1  16
ATOM     14  N   LIG    1       27.915  30.134 203.647  0.00  0.00    -0.307 N 
ATOM     15  H   LIG    1       27.662  29.886 202.683  0.00  0.00    +0.149 HD
ATOM     16  C   LIG    1       28.067  31.471 203.900  0.00  0.00    +0.266 C 
ATOM     17  O   LIG    1       28.283  31.810 205.062  0.00  0.00    -0.268 OA
BRANCH  14  18
ATOM     18  C   LIG    1       27.781  29.125 204.679  0.00  0.00    +0.070 C 
ATOM     19  C   LIG    1       28.814  28.045 204.359  0.00  0.00    +0.028 C 
BRANCH  18  20
ATOM     20  C   LIG    1       26.329  28.612 204.659  0.00  0.00    +0.023 C 
BRANCH  20  21
ATOM     21  C   LIG    1       25.983  27.525 205.701  0.00  0.00    +0.017 C 
BRANCH  21  22
ATOM     22  C   LIG    1       25.781  26.209 204.911  0.00  0.00    +0.084 C 
BRANCH  22  23
ATOM     23  N   LIG    1       24.440  26.201 204.269  0.00  0.00    -0.303 NA
BRANCH  23  25
ATOM     24  C   LIG    1       25.357  24.201 203.371  0.00  0.00    +0.020 C 
ATOM     25  C   LIG    1       24.038  24.865 203.772  0.00  0.00    +0.081 C 
ENDBRANCH  23  25
BRANCH  23  26
ATOM     26  C   LIG    1       23.398  26.866 205.075  0.00  0.00    +0.081 C 
ATOM     27  C   LIG    1       22.446  27.503 204.056  0.00  0.00    +0.020 C 
ENDBRANCH  23  26
ENDBRANCH  22  23
ENDBRANCH  21  22
ENDBRANCH  20  21
ENDBRANCH  18  20
ENDBRANCH  14  18
ENDBRANCH   1  16
BRANCH   8  28
ATOM     28  O   LIG    1       26.040  36.189 197.106  0.00  0.00    -0.495 OA
ATOM     29  C   LIG    1       25.961  35.567 195.803  0.00  0.00    +0.277 C 
ENDBRANCH   8  28
TORSDOF 9
ENDMDL
MODEL 2
REMARK VINA RESULT:      -7.6     21.390     23.109
REMARK  Name = ZINC000022625070
REMARK                            x       y       z     vdW  Elec       q    Type
REMARK                         _______ _______ _______ _____ _____    ______ ____
ROOT
ATOM      1  C   LIG    1       32.793  19.156 185.751  0.00  0.00    +0.171 A 
ATOM      2  C   LIG    1       32.066  18.563 184.719  0.00  0.00    +0.032 A 
ATOM      3  C   LIG    1       32.296  18.437 183.223  0.00  0.00    +0.046 C 
ATOM      4  C   LIG    1       31.628  17.120 182.737  0.00  0.00    +0.040 C 
ATOM      5  C   LIG    1       30.194  16.981 183.270  0.00  0.00    -0.036 A 
ATOM      6  C   LIG    1       29.884  17.426 184.566  0.00  0.00    +0.027 A 
ATOM      7  C   LIG    1       28.607  17.222 185.092  0.00  0.00    +0.057 A 
ATOM      8  C   LIG    1       27.639  16.593 184.310  0.00  0.00    +0.121 A 
ATOM      9  C   LIG    1       27.933  16.165 183.018  0.00  0.00    +0.046 A 
ATOM     10  C   LIG    1       29.212  16.355 182.503  0.00  0.00    +0.008 A 
ATOM     11  C   LIG    1       30.936  18.109 185.278  0.00  0.00    +0.171 A 
ATOM     12  O   LIG    1       30.976  18.413 186.582  0.00  0.00    -0.354 OA
ATOM     13  N   LIG    1       32.108  19.048 186.868  0.00  0.00    -0.073 NA
ENDROOT
BRANCH   1  16
ATOM     14  N   LIG    1       35.221  19.045 185.822  0.00  0.00    -0.307 N 
ATOM     15  H   LIG    1       35.058  18.067 186.090  0.00  0.00    +0.149 HD
ATOM     16  C   LIG    1       34.102  19.811 185.643  0.00  0.00    +0.266 C 
ATOM     17  O   LIG    1       34.262  21.008 185.410  0.00  0.00    -0.268 OA
BRANCH  14  18
ATOM     18  C   LIG    1       36.559  19.586 185.965  0.00  0.00    +0.070 C 
ATOM     19  C   LIG    1       37.271  19.325 184.638  0.00  0.00    +0.028 C 
BRANCH  18  20
ATOM     20  C   LIG    1       37.227  18.896 187.168  0.00  0.00    +0.023 C 
BRANCH  20  21
ATOM     21  C   LIG    1       36.379  17.823 187.888  0.00  0.00    +0.017 C 
BRANCH  21  22
ATOM     22  C   LIG    1       37.263  16.556 187.982  0.00  0.00    +0.084 C 
BRANCH  22  23
ATOM     23  N   LIG    1       37.777  16.396 189.368  0.00  0.00    -0.303 NA
BRANCH  23  25
ATOM     24  C   LIG    1       39.873  15.843 188.394  0.00  0.00    +0.020 C 
ATOM     25  C   LIG    1       39.223  16.688 189.492  0.00  0.00    +0.081 C 
ENDBRANCH  23  25
BRANCH  23  26
ATOM     26  C   LIG    1       36.950  17.075 190.384  0.00  0.00    +0.081 C 
ATOM     27  C   LIG    1       36.148  15.958 191.062  0.00  0.00    +0.020 C 
ENDBRANCH  23  26
ENDBRANCH  22  23
ENDBRANCH  21  22
ENDBRANCH  20  21
ENDBRANCH  18  20
ENDBRANCH  14  18
ENDBRANCH   1  16
BRANCH   8  28
ATOM     28  O   LIG    1       26.361  16.369 184.770  0.00  0.00    -0.495 OA
ATOM     29  C   LIG    1       25.983  16.284 186.163  0.00  0.00    +0.277 C 
ENDBRANCH   8  28
TORSDOF 9
ENDMDL
MODEL 3
REMARK VINA RESULT:      -7.5     21.019     23.020
REMARK  Name = ZINC000022625070
REMARK                            x       y       z     vdW  Elec       q    Type
REMARK                         _______ _______ _______ _____ _____    ______ ____
ROOT
ATOM      1  C   LIG    1       32.316  18.385 185.145  0.00  0.00    +0.171 A 
ATOM      2  C   LIG    1       31.061  17.786 185.033  0.00  0.00    +0.032 A 
ATOM      3  C   LIG    1       30.073  17.240 186.049  0.00  0.00    +0.046 C 
ATOM      4  C   LIG    1       28.640  17.400 185.470  0.00  0.00    +0.040 C 
ATOM      5  C   LIG    1       28.554  16.892 184.022  0.00  0.00    -0.036 A 
ATOM      6  C   LIG    1       29.634  17.093 183.146  0.00  0.00    +0.027 A 
ATOM      7  C   LIG    1       29.530  16.717 181.805  0.00  0.00    +0.057 A 
ATOM      8  C   LIG    1       28.353  16.122 181.352  0.00  0.00    +0.121 A 
ATOM      9  C   LIG    1       27.285  15.904 182.218  0.00  0.00    +0.046 A 
ATOM     10  C   LIG    1       27.386  16.295 183.551  0.00  0.00    +0.008 A 
ATOM     11  C   LIG    1       30.826  17.669 183.719  0.00  0.00    +0.171 A 
ATOM     12  O   LIG    1       31.884  18.171 183.069  0.00  0.00    -0.354 OA
ATOM     13  N   LIG    1       32.789  18.608 183.939  0.00  0.00    -0.073 NA
ENDROOT
BRANCH   1  16
ATOM     14  N   LIG    1       34.384  18.548 186.413  0.00  0.00    -0.307 N 
ATOM     15  H   LIG    1       34.802  18.134 185.571  0.00  0.00    +0.149 HD
ATOM     16  C   LIG    1       33.026  18.715 186.386  0.00  0.00    +0.266 C 
ATOM     17  O   LIG    1       32.482  19.125 187.410  0.00  0.00    -0.268 OA
BRANCH  14  18
ATOM     18  C   LIG    1       35.185  18.618 187.620  0.00  0.00    +0.070 C 
ATOM     19  C   LIG    1       35.566  20.088 187.797  0.00  0.00    +0.028 C 
BRANCH  18  20
ATOM     20  C   LIG    1       36.398  17.686 187.443  0.00  0.00    +0.023 C 
BRANCH  20  21
ATOM     21  C   LIG    1       36.693  16.732 188.621  0.00  0.00    +0.017 C 
BRANCH  21  22
ATOM     22  C   LIG    1       37.526  17.542 189.643  0.00  0.00    +0.084 C 
BRANCH  22  23
ATOM     23  N   LIG    1       37.283  17.032 191.018  0.00  0.00    -0.303 NA
BRANCH  23  25
ATOM     24  C   LIG    1       37.812  19.304 191.468  0.00  0.00    +0.020 C 
ATOM     25  C   LIG    1       37.024  18.106 192.003  0.00  0.00    +0.081 C 
ENDBRANCH  23  25
BRANCH  23  26
ATOM     26  C   LIG    1       36.297  15.934 191.072  0.00  0.00    +0.081 C 
ATOM     27  C   LIG    1       35.494  16.176 192.356  0.00  0.00    +0.020 C 
ENDBRANCH  23  26
ENDBRANCH  22  23
ENDBRANCH  21  22
ENDBRANCH  20  21
ENDBRANCH  18  20
ENDBRANCH  14  18
ENDBRANCH   1  16
BRANCH   8  28
ATOM     28  O   LIG    1       28.192  15.725 180.044  0.00  0.00    -0.495 OA
ATOM     29  C   LIG    1       28.577  16.501 178.887  0.00  0.00    +0.277 C 
ENDBRANCH   8  28
TORSDOF 9
ENDMDL
MODEL 4
REMARK VINA RESULT:      -7.5      2.089      2.856
REMARK  Name = ZINC000022625070
REMARK                            x       y       z     vdW  Elec       q    Type
REMARK                         _______ _______ _______ _____ _____    ______ ____
ROOT
ATOM      1  C   LIG    1       27.537  33.259 202.106  0.00  0.00    +0.171 A 
ATOM      2  C   LIG    1       26.379  33.574 201.395  0.00  0.00    +0.032 A 
ATOM      3  C   LIG    1       24.898  33.437 201.703  0.00  0.00    +0.046 C 
ATOM      4  C   LIG    1       24.138  34.569 200.957  0.00  0.00    +0.040 C 
ATOM      5  C   LIG    1       24.571  34.669 199.486  0.00  0.00    -0.036 A 
ATOM      6  C   LIG    1       25.915  34.450 199.138  0.00  0.00    +0.027 A 
ATOM      7  C   LIG    1       26.336  34.627 197.818  0.00  0.00    +0.057 A 
ATOM      8  C   LIG    1       25.406  35.002 196.850  0.00  0.00    +0.121 A 
ATOM      9  C   LIG    1       24.069  35.204 197.184  0.00  0.00    +0.046 A 
ATOM     10  C   LIG    1       23.656  35.042 198.504  0.00  0.00    +0.008 A 
ATOM     11  C   LIG    1       26.791  34.016 200.199  0.00  0.00    +0.171 A 
ATOM     12  O   LIG    1       28.129  33.969 200.185  0.00  0.00    -0.354 OA
ATOM     13  N   LIG    1       28.582  33.510 201.348  0.00  0.00    -0.073 NA
ENDROOT
BRANCH   1  16
ATOM     14  N   LIG    1       27.821  31.377 203.620  0.00  0.00    -0.307 N 
ATOM     15  H   LIG    1       27.839  30.826 202.753  0.00  0.00    +0.149 HD
ATOM     16  C   LIG    1       27.615  32.722 203.469  0.00  0.00    +0.266 C 
ATOM     17  O   LIG    1       27.498  33.398 204.490  0.00  0.00    -0.268 OA
BRANCH  14  18
ATOM     18  C   LIG    1       27.699  30.675 204.883  0.00  0.00    +0.070 C 
ATOM     19  C   LIG    1       28.728  31.304 205.823  0.00  0.00    +0.028 C 
BRANCH  18  20
ATOM     20  C   LIG    1       27.940  29.177 204.621  0.00  0.00    +0.023 C 
BRANCH  20  21
ATOM     21  C   LIG    1       27.105  28.200 205.479  0.00  0.00    +0.017 C 
BRANCH  21  22
ATOM     22  C   LIG    1       27.516  26.773 205.041  0.00  0.00    +0.084 C 
BRANCH  22  23
ATOM     23  N   LIG    1       28.429  26.173 206.050  0.00  0.00    -0.303 NA
BRANCH  23  25
ATOM     24  C   LIG    1       27.819  25.993 208.340  0.00  0.00    +0.020 C 
ATOM     25  C   LIG    1       27.740  25.265 206.995  0.00  0.00    +0.081 C 
ENDBRANCH  23  25
BRANCH  23  26
ATOM     26  C   LIG    1       29.653  25.594 205.465  0.00  0.00    +0.081 C 
ATOM     27  C   LIG    1       29.590  25.942 203.973  0.00  0.00    +0.020 C 
ENDBRANCH  23  26
ENDBRANCH  22  23
ENDBRANCH  21  22
ENDBRANCH  20  21
ENDBRANCH  18  20
ENDBRANCH  14  18
ENDBRANCH   1  16
BRANCH   8  28
ATOM     28  O   LIG    1       25.758  35.186 195.532  0.00  0.00    -0.495 OA
ATOM     29  C   LIG    1       26.924  35.911 195.077  0.00  0.00    +0.277 C 
ENDBRANCH   8  28
TORSDOF 9
ENDMDL
MODEL 5
REMARK VINA RESULT:      -7.4      3.349     10.103
REMARK  Name = ZINC000022625070
REMARK                            x       y       z     vdW  Elec       q    Type
REMARK                         _______ _______ _______ _____ _____    ______ ____
ROOT
ATOM      1  C   LIG    1       27.702  28.885 205.055  0.00  0.00    +0.171 A 
ATOM      2  C   LIG    1       28.289  27.621 204.977  0.00  0.00    +0.032 A 
ATOM      3  C   LIG    1       29.142  26.934 203.925  0.00  0.00    +0.046 C 
ATOM      4  C   LIG    1       30.081  25.926 204.644  0.00  0.00    +0.040 C 
ATOM      5  C   LIG    1       29.314  25.051 205.648  0.00  0.00    -0.036 A 
ATOM      6  C   LIG    1       28.263  25.607 206.397  0.00  0.00    +0.027 A 
ATOM      7  C   LIG    1       27.619  24.846 207.375  0.00  0.00    +0.057 A 
ATOM      8  C   LIG    1       28.016  23.526 207.584  0.00  0.00    +0.121 A 
ATOM      9  C   LIG    1       29.045  22.963 206.834  0.00  0.00    +0.046 A 
ATOM     10  C   LIG    1       29.695  23.729 205.871  0.00  0.00    +0.008 A 
ATOM     11  C   LIG    1       27.891  26.963 206.074  0.00  0.00    +0.171 A 
ATOM     12  O   LIG    1       27.104  27.784 206.780  0.00  0.00    -0.354 OA
ATOM     13  N   LIG    1       26.992  28.955 206.160  0.00  0.00    -0.073 NA
ENDROOT
BRANCH   1  16
ATOM     14  N   LIG    1       28.389  31.150 204.498  0.00  0.00    -0.307 N 
ATOM     15  H   LIG    1       28.626  31.204 205.497  0.00  0.00    +0.149 HD
ATOM     16  C   LIG    1       27.825  29.975 204.081  0.00  0.00    +0.266 C 
ATOM     17  O   LIG    1       27.447  29.908 202.913  0.00  0.00    -0.268 OA
BRANCH  14  18
ATOM     18  C   LIG    1       28.375  32.376 203.724  0.00  0.00    +0.070 C 
ATOM     19  C   LIG    1       29.643  33.138 204.107  0.00  0.00    +0.028 C 
BRANCH  18  20
ATOM     20  C   LIG    1       27.077  33.135 204.055  0.00  0.00    +0.023 C 
BRANCH  20  21
ATOM     21  C   LIG    1       26.012  33.171 202.937  0.00  0.00    +0.017 C 
BRANCH  21  22
ATOM     22  C   LIG    1       26.786  33.188 201.596  0.00  0.00    +0.084 C 
BRANCH  22  23
ATOM     23  N   LIG    1       26.133  34.124 200.643  0.00  0.00    -0.303 NA
BRANCH  23  25
ATOM     24  C   LIG    1       23.943  34.992 200.328  0.00  0.00    +0.020 C 
ATOM     25  C   LIG    1       25.138  35.013 201.284  0.00  0.00    +0.081 C 
ENDBRANCH  23  25
BRANCH  23  26
ATOM     26  C   LIG    1       27.088  34.840 199.775  0.00  0.00    +0.081 C 
ATOM     27  C   LIG    1       28.472  34.320 200.184  0.00  0.00    +0.020 C 
ENDBRANCH  23  26
ENDBRANCH  22  23
ENDBRANCH  21  22
ENDBRANCH  20  21
ENDBRANCH  18  20
ENDBRANCH  14  18
ENDBRANCH   1  16
BRANCH   8  28
ATOM     28  O   LIG    1       27.417  22.724 208.529  0.00  0.00    -0.495 OA
ATOM     29  C   LIG    1       27.549  21.286 208.602  0.00  0.00    +0.277 C 
ENDBRANCH   8  28
TORSDOF 9
ENDMDL
MODEL 6
REMARK VINA RESULT:      -7.4     12.738     15.548
REMARK  Name = ZINC000022625070
REMARK                            x       y       z     vdW  Elec       q    Type
REMARK                         _______ _______ _______ _____ _____    ______ ____
ROOT
ATOM      1  C   LIG    1       19.339  40.342 209.243  0.00  0.00    +0.171 A 
ATOM      2  C   LIG    1       18.851  39.157 209.796  0.00  0.00    +0.032 A 
ATOM      3  C   LIG    1       19.050  38.476 211.138  0.00  0.00    +0.046 C 
ATOM      4  C   LIG    1       17.765  37.667 211.469  0.00  0.00    +0.040 C 
ATOM      5  C   LIG    1       17.311  36.811 210.277  0.00  0.00    -0.036 A 
ATOM      6  C   LIG    1       17.447  37.308 208.969  0.00  0.00    +0.027 A 
ATOM      7  C   LIG    1       16.955  36.576 207.886  0.00  0.00    +0.057 A 
ATOM      8  C   LIG    1       16.348  35.342 208.115  0.00  0.00    +0.121 A 
ATOM      9  C   LIG    1       16.225  34.836 209.406  0.00  0.00    +0.046 A 
ATOM     10  C   LIG    1       16.702  35.575 210.485  0.00  0.00    +0.008 A 
ATOM     11  C   LIG    1       18.133  38.569 208.830  0.00  0.00    +0.171 A 
ATOM     12  O   LIG    1       18.183  39.355 207.747  0.00  0.00    -0.354 OA
ATOM     13  N   LIG    1       18.917  40.435 208.001  0.00  0.00    -0.073 NA
ENDROOT
BRANCH   1  16
ATOM     14  N   LIG    1       21.318  41.753 209.245  0.00  0.00    -0.307 N 
ATOM     15  H   LIG    1       21.518  41.282 208.353  0.00  0.00    +0.149 HD
ATOM     16  C   LIG    1       20.194  41.335 209.902  0.00  0.00    +0.266 C 
ATOM     17  O   LIG    1       19.973  41.814 211.013  0.00  0.00    -0.268 OA
BRANCH  14  18
ATOM     18  C   LIG    1       22.364  42.551 209.854  0.00  0.00    +0.070 C 
ATOM     19  C   LIG    1       21.989  44.012 209.603  0.00  0.00    +0.028 C 
BRANCH  18  20
ATOM     20  C   LIG    1       23.707  42.144 209.221  0.00  0.00    +0.023 C 
BRANCH  20  21
ATOM     21  C   LIG    1       24.354  43.185 208.281  0.00  0.00    +0.017 C 
BRANCH  21  22
ATOM     22  C   LIG    1       25.650  43.662 208.980  0.00  0.00    +0.084 C 
BRANCH  22  23
ATOM     23  N   LIG    1       25.938  45.073 208.611  0.00  0.00    -0.303 NA
BRANCH  23  25
ATOM     24  C   LIG    1       25.300  47.062 207.479  0.00  0.00    +0.020 C 
ATOM     25  C   LIG    1       25.174  45.537 207.431  0.00  0.00    +0.081 C 
ENDBRANCH  23  25
BRANCH  23  26
ATOM     26  C   LIG    1       25.877  46.004 209.755  0.00  0.00    +0.081 C 
ATOM     27  C   LIG    1       27.032  45.590 210.674  0.00  0.00    +0.020 C 
ENDBRANCH  23  26
ENDBRANCH  22  23
ENDBRANCH  21  22
ENDBRANCH  20  21
ENDBRANCH  18  20
ENDBRANCH  14  18
ENDBRANCH   1  16
BRANCH   8  28
ATOM     28  O   LIG    1       15.849  34.573 207.089  0.00  0.00    -0.495 OA
ATOM     29  C   LIG    1       14.941  33.459 207.251  0.00  0.00    +0.277 C 
ENDBRANCH   8  28
TORSDOF 9
ENDMDL
MODEL 7
REMARK VINA RESULT:      -7.2     20.856     22.946
REMARK  Name = ZINC000022625070
REMARK                            x       y       z     vdW  Elec       q    Type
REMARK                         _______ _______ _______ _____ _____    ______ ____
ROOT
ATOM      1  C   LIG    1       32.841  19.098 185.745  0.00  0.00    +0.171 A 
ATOM      2  C   LIG    1       32.099  18.525 184.711  0.00  0.00    +0.032 A 
ATOM      3  C   LIG    1       32.322  18.402 183.214  0.00  0.00    +0.046 C 
ATOM      4  C   LIG    1       31.625  17.102 182.724  0.00  0.00    +0.040 C 
ATOM      5  C   LIG    1       30.190  16.990 183.260  0.00  0.00    -0.036 A 
ATOM      6  C   LIG    1       29.893  17.435 184.560  0.00  0.00    +0.027 A 
ATOM      7  C   LIG    1       28.613  17.256 185.088  0.00  0.00    +0.057 A 
ATOM      8  C   LIG    1       27.630  16.652 184.306  0.00  0.00    +0.121 A 
ATOM      9  C   LIG    1       27.911  16.224 183.011  0.00  0.00    +0.046 A 
ATOM     10  C   LIG    1       29.193  16.389 182.493  0.00  0.00    +0.008 A 
ATOM     11  C   LIG    1       30.961  18.093 185.272  0.00  0.00    +0.171 A 
ATOM     12  O   LIG    1       31.011  18.389 186.577  0.00  0.00    -0.354 OA
ATOM     13  N   LIG    1       32.157  18.999 186.863  0.00  0.00    -0.073 NA
ENDROOT
BRANCH   1  16
ATOM     14  N   LIG    1       35.266  18.936 185.809  0.00  0.00    -0.307 N 
ATOM     15  H   LIG    1       35.083  17.960 186.072  0.00  0.00    +0.149 HD
ATOM     16  C   LIG    1       34.162  19.726 185.636  0.00  0.00    +0.266 C 
ATOM     17  O   LIG    1       34.347  20.921 185.408  0.00  0.00    -0.268 OA
BRANCH  14  18
ATOM     18  C   LIG    1       36.615  19.448 185.951  0.00  0.00    +0.070 C 
ATOM     19  C   LIG    1       37.247  19.381 184.561  0.00  0.00    +0.028 C 
BRANCH  18  20
ATOM     20  C   LIG    1       37.344  18.589 187.000  0.00  0.00    +0.023 C 
BRANCH  20  21
ATOM     21  C   LIG    1       38.749  19.079 187.416  0.00  0.00    +0.017 C 
BRANCH  21  22
ATOM     22  C   LIG    1       38.896  18.760 188.924  0.00  0.00    +0.084 C 
BRANCH  22  23
ATOM     23  N   LIG    1       38.742  20.002 189.725  0.00  0.00    -0.303 NA
BRANCH  23  25
ATOM     24  C   LIG    1       40.107  21.926 189.434  0.00  0.00    +0.020 C 
ATOM     25  C   LIG    1       38.842  21.237 188.915  0.00  0.00    +0.081 C 
ENDBRANCH  23  25
BRANCH  23  26
ATOM     26  C   LIG    1       37.572  19.982 190.623  0.00  0.00    +0.081 C 
ATOM     27  C   LIG    1       36.513  20.844 189.926  0.00  0.00    +0.020 C 
ENDBRANCH  23  26
ENDBRANCH  22  23
ENDBRANCH  21  22
ENDBRANCH  20  21
ENDBRANCH  18  20
ENDBRANCH  14  18
ENDBRANCH   1  16
BRANCH   8  28
ATOM     28  O   LIG    1       26.349  16.452 184.768  0.00  0.00    -0.495 OA
ATOM     29  C   LIG    1       25.993  16.202 186.147  0.00  0.00    +0.277 C 
ENDBRANCH   8  28
TORSDOF 9
ENDMDL
MODEL 8
REMARK VINA RESULT:      -6.9     12.827     14.628
REMARK  Name = ZINC000022625070
REMARK                            x       y       z     vdW  Elec       q    Type
REMARK                         _______ _______ _______ _____ _____    ______ ____
ROOT
ATOM      1  C   LIG    1       19.752  40.721 209.114  0.00  0.00    +0.171 A 
ATOM      2  C   LIG    1       19.281  39.549 209.706  0.00  0.00    +0.032 A 
ATOM      3  C   LIG    1       19.623  38.825 210.997  0.00  0.00    +0.046 C 
ATOM      4  C   LIG    1       18.353  38.073 211.484  0.00  0.00    +0.040 C 
ATOM      5  C   LIG    1       17.698  37.271 210.349  0.00  0.00    -0.036 A 
ATOM      6  C   LIG    1       17.682  37.793 209.044  0.00  0.00    +0.027 A 
ATOM      7  C   LIG    1       17.011  37.115 208.025  0.00  0.00    +0.057 A 
ATOM      8  C   LIG    1       16.376  35.907 208.311  0.00  0.00    +0.121 A 
ATOM      9  C   LIG    1       16.402  35.375 209.598  0.00  0.00    +0.046 A 
ATOM     10  C   LIG    1       17.058  36.062 210.615  0.00  0.00    +0.008 A 
ATOM     11  C   LIG    1       18.409  39.022 208.836  0.00  0.00    +0.171 A 
ATOM     12  O   LIG    1       18.355  39.831 207.771  0.00  0.00    -0.354 OA
ATOM     13  N   LIG    1       19.172  40.867 207.942  0.00  0.00    -0.073 NA
ENDROOT
BRANCH   1  16
ATOM     14  N   LIG    1       21.991  41.668 209.117  0.00  0.00    -0.307 N 
ATOM     15  H   LIG    1       22.168  40.966 208.389  0.00  0.00    +0.149 HD
ATOM     16  C   LIG    1       20.739  41.654 209.669  0.00  0.00    +0.266 C 
ATOM     17  O   LIG    1       20.520  42.421 210.605  0.00  0.00    -0.268 OA
BRANCH  14  18
ATOM     18  C   LIG    1       23.123  42.365 209.696  0.00  0.00    +0.070 C 
ATOM     19  C   LIG    1       23.845  43.047 208.533  0.00  0.00    +0.028 C 
BRANCH  18  20
ATOM     20  C   LIG    1       23.991  41.333 210.439  0.00  0.00    +0.023 C 
BRANCH  20  21
ATOM     21  C   LIG    1       23.643  41.105 211.927  0.00  0.00    +0.017 C 
BRANCH  21  22
ATOM     22  C   LIG    1       24.374  39.809 212.354  0.00  0.00    +0.084 C 
BRANCH  22  23
ATOM     23  N   LIG    1       25.332  40.102 213.452  0.00  0.00    -0.303 NA
BRANCH  23  25
ATOM     24  C   LIG    1       27.464  40.599 212.526  0.00  0.00    +0.020 C 
ATOM     25  C   LIG    1       26.668  39.502 213.238  0.00  0.00    +0.081 C 
ENDBRANCH  23  25
BRANCH  23  26
ATOM     26  C   LIG    1       25.381  41.530 213.823  0.00  0.00    +0.081 C 
ATOM     27  C   LIG    1       25.219  41.556 215.348  0.00  0.00    +0.020 C 
ENDBRANCH  23  26
ENDBRANCH  22  23
ENDBRANCH  21  22
ENDBRANCH  20  21
ENDBRANCH  18  20
ENDBRANCH  14  18
ENDBRANCH   1  16
BRANCH   8  28
ATOM     28  O   LIG    1       15.704  35.189 207.349  0.00  0.00    -0.495 OA
ATOM     29  C   LIG    1       15.115  33.883 207.546  0.00  0.00    +0.277 C 
ENDBRANCH   8  28
TORSDOF 9
ENDMDL
MODEL 9
REMARK VINA RESULT:      -6.9     13.554     15.027
REMARK  Name = ZINC000022625070
REMARK                            x       y       z     vdW  Elec       q    Type
REMARK                         _______ _______ _______ _____ _____    ______ ____
ROOT
ATOM      1  C   LIG    1       22.368  43.259 209.927  0.00  0.00    +0.171 A 
ATOM      2  C   LIG    1       23.252  44.057 209.200  0.00  0.00    +0.032 A 
ATOM      3  C   LIG    1       24.160  43.788 208.013  0.00  0.00    +0.046 C 
ATOM      4  C   LIG    1       24.303  45.106 207.202  0.00  0.00    +0.040 C 
ATOM      5  C   LIG    1       24.627  46.300 208.113  0.00  0.00    -0.036 A 
ATOM      6  C   LIG    1       24.043  46.383 209.389  0.00  0.00    +0.027 A 
ATOM      7  C   LIG    1       24.259  47.508 210.188  0.00  0.00    +0.057 A 
ATOM      8  C   LIG    1       25.075  48.535 209.715  0.00  0.00    +0.121 A 
ATOM      9  C   LIG    1       25.671  48.452 208.459  0.00  0.00    +0.046 A 
ATOM     10  C   LIG    1       25.440  47.337 207.658  0.00  0.00    +0.008 A 
ATOM     11  C   LIG    1       23.256  45.250 209.809  0.00  0.00    +0.171 A 
ATOM     12  O   LIG    1       22.419  45.179 210.852  0.00  0.00    -0.354 OA
ATOM     13  N   LIG    1       21.878  43.967 210.921  0.00  0.00    -0.073 NA
ENDROOT
BRANCH   1  16
ATOM     14  N   LIG    1       20.781  41.580 209.169  0.00  0.00    -0.307 N 
ATOM     15  H   LIG    1       20.144  42.382 209.082  0.00  0.00    +0.149 HD
ATOM     16  C   LIG    1       22.026  41.857 209.664  0.00  0.00    +0.266 C 
ATOM     17  O   LIG    1       22.783  40.908 209.865  0.00  0.00    -0.268 OA
BRANCH  14  18
ATOM     18  C   LIG    1       20.226  40.244 209.071  0.00  0.00    +0.070 C 
ATOM     19  C   LIG    1       19.324  40.245 207.837  0.00  0.00    +0.028 C 
BRANCH  18  20
ATOM     20  C   LIG    1       19.476  39.940 210.381  0.00  0.00    +0.023 C 
BRANCH  20  21
ATOM     21  C   LIG    1       19.162  38.451 210.649  0.00  0.00    +0.017 C 
BRANCH  21  22
ATOM     22  C   LIG    1       17.630  38.292 210.491  0.00  0.00    +0.084 C 
BRANCH  22  23
ATOM     23  N   LIG    1       17.324  37.070 209.700  0.00  0.00    -0.303 NA
BRANCH  23  25
ATOM     24  C   LIG    1       16.969  35.285 211.228  0.00  0.00    +0.020 C 
ATOM     25  C   LIG    1       16.241  36.250 210.288  0.00  0.00    +0.081 C 
ENDBRANCH  23  25
BRANCH  23  26
ATOM     26  C   LIG    1       17.147  37.332 208.259  0.00  0.00    +0.081 C 
ATOM     27  C   LIG    1       17.223  35.956 207.587  0.00  0.00    +0.020 C 
ENDBRANCH  23  26
ENDBRANCH  22  23
ENDBRANCH  21  22
ENDBRANCH  20  21
ENDBRANCH  18  20
ENDBRANCH  14  18
ENDBRANCH   1  16
BRANCH   8  28
ATOM     28  O   LIG    1       25.331  49.665 210.457  0.00  0.00    -0.495 OA
ATOM     29  C   LIG    1       24.343  50.403 211.214  0.00  0.00    +0.277 C 
ENDBRANCH   8  28
TORSDOF 9
ENDMDL
