REMARK VINA RESULT:      -6.7     21.833     25.514
REMARK  Name = ZINC000000538069
REMARK                            x       y       z     vdW  Elec       q    Type
REMARK                         _______ _______ _______ _____ _____    ______ ____
ROOT
ATOM      1  C   LIG    1       23.747  41.177 211.864  0.00  0.00    +0.248 C 
ATOM      2  N   LIG    1       22.522  40.578 211.856  0.00  0.00    -0.307 N 
ATOM      3  H   LIG    1       21.841  40.961 211.178  0.00  0.00    +0.149 HD
ATOM      4  O   LIG    1       24.477  40.903 212.814  0.00  0.00    -0.270 OA
ENDROOT
BRANCH   1   9
ATOM      5  C   LIG    1       25.010  43.876 208.773  0.00  0.00    +0.049 A 
ATOM      6  C   LIG    1       25.420  44.051 210.111  0.00  0.00    +0.063 A 
ATOM      7 CL   LIG    1       26.469  45.360 210.550  0.00  0.00    -0.082 Cl
ATOM      8  C   LIG    1       24.992  43.163 211.090  0.00  0.00    +0.038 A 
ATOM      9  C   LIG    1       24.149  42.080 210.778  0.00  0.00    +0.080 A 
ATOM     10  C   LIG    1       23.735  41.935 209.431  0.00  0.00    +0.134 A 
ATOM     11  C   LIG    1       24.161  42.822 208.439  0.00  0.00    +0.070 A 
BRANCH   5  13
ATOM     12  C   LIG    1       24.688  46.002 207.528  0.00  0.00    +0.125 C 
ATOM     13  N   LIG    1       25.455  44.780 207.789  0.00  0.00    -0.346 N 
ATOM     14  H   LIG    1       25.757  44.293 206.925  0.00  0.00    +0.146 HD
ENDBRANCH   5  13
BRANCH  10  15
ATOM     15  O   LIG    1       22.882  40.903 209.075  0.00  0.00    -0.494 OA
ATOM     16  C   LIG    1       21.459  40.958 208.821  0.00  0.00    +0.277 C 
ENDBRANCH  10  15
ENDBRANCH   1   9
BRANCH   2  17
ATOM     17  C   LIG    1       21.895  39.969 213.031  0.00  0.00    +0.091 C 
ATOM     18  C   LIG    1       20.359  40.138 212.993  0.00  0.00    +0.074 C 
ATOM     19  C   LIG    1       19.931  41.576 212.648  0.00  0.00    +0.026 C 
ATOM     20  N   LIG    1       19.937  39.259 211.895  0.00  0.00    -0.294 NA
ATOM     21  C   LIG    1       20.926  38.159 211.768  0.00  0.00    +0.087 C 
ATOM     22  C   LIG    1       22.002  38.463 212.831  0.00  0.00    +0.039 C 
BRANCH  20  23
ATOM     23  C   LIG    1       18.560  38.755 212.074  0.00  0.00    +0.120 C 
BRANCH  23  24
ATOM     24  C   LIG    1       18.099  38.329 210.691  0.00  0.00    -0.033 A 
ATOM     25  C   LIG    1       17.609  37.043 210.465  0.00  0.00    +0.005 A 
ATOM     26  C   LIG    1       17.184  36.666 209.194  0.00  0.00    +0.000 A 
ATOM     27  C   LIG    1       17.247  37.574 208.141  0.00  0.00    +0.000 A 
ATOM     28  C   LIG    1       17.736  38.858 208.360  0.00  0.00    +0.000 A 
ATOM     29  C   LIG    1       18.160  39.232 209.630  0.00  0.00    +0.005 A 
ENDBRANCH  23  24
ENDBRANCH  20  23
ENDBRANCH   2  17
TORSDOF 6
