REMARK VINA RESULT:      -7.6      2.829      9.631
REMARK  Name = ZINC000009107243
REMARK                            x       y       z     vdW  Elec       q    Type
REMARK                         _______ _______ _______ _____ _____    ______ ____
ROOT
ATOM      1  N   LIG    1       34.457  19.394 185.392  0.00  0.00    -0.285 N 
ATOM      2  H   LIG    1       34.525  19.656 184.399  0.00  0.00    +0.155 HD
ATOM      3  C   LIG    1       33.176  19.313 185.878  0.00  0.00    +0.222 C 
ATOM      4  O   LIG    1       32.954  18.850 186.977  0.00  0.00    -0.275 OA
ENDROOT
BRANCH   1   9
ATOM      5  N   LIG    1       39.268  18.090 187.991  0.00  0.00    -0.271 N 
ATOM      6  C   LIG    1       38.051  18.429 187.316  0.00  0.00    +0.040 A 
ATOM      7  C   LIG    1       37.967  19.555 186.486  0.00  0.00    +0.025 A 
ATOM      8  C   LIG    1       36.768  19.854 185.852  0.00  0.00    +0.025 A 
ATOM      9  C   LIG    1       35.658  19.029 186.046  0.00  0.00    +0.034 A 
ATOM     10  C   LIG    1       35.738  17.907 186.875  0.00  0.00    +0.028 A 
ATOM     11  C   LIG    1       36.938  17.596 187.508  0.00  0.00    -0.024 A 
ATOM     12  C   LIG    1       37.036  16.378 188.406  0.00  0.00    +0.046 C 
ATOM     13  C   LIG    1       38.410  15.752 188.106  0.00  0.00    +0.101 C 
ATOM     14  C   LIG    1       39.447  16.798 188.455  0.00  0.00    +0.220 C 
ATOM     15  O   LIG    1       40.420  16.520 189.133  0.00  0.00    -0.275 OA
BRANCH   5  16
ATOM     16  C   LIG    1       40.301  19.105 188.282  0.00  0.00    +0.113 C 
BRANCH  16  18
ATOM     17  C   LIG    1       39.936  21.384 189.177  0.00  0.00    +0.005 C 
ATOM     18  C   LIG    1       39.793  19.892 189.507  0.00  0.00    +0.016 C 
ENDBRANCH  16  18
ENDBRANCH   5  16
ENDBRANCH   1   9
BRANCH   3  19
ATOM     19  C   LIG    1       32.055  19.819 184.988  0.00  0.00    +0.131 C 
BRANCH  19  20
ATOM     20  C   LIG    1       31.464  18.627 184.248  0.00  0.00    -0.035 A 
ATOM     21  C   LIG    1       32.032  18.183 183.053  0.00  0.00    +0.053 A 
ATOM     22  C   LIG    1       31.504  17.069 182.395  0.00  0.00    +0.162 A 
ATOM     23  C   LIG    1       30.396  16.396 182.942  0.00  0.00    +0.161 A 
ATOM     24  C   LIG    1       29.830  16.846 184.129  0.00  0.00    +0.049 A 
ATOM     25  C   LIG    1       30.360  17.956 184.780  0.00  0.00    +0.008 A 
BRANCH  22  26
ATOM     26  O   LIG    1       32.084  16.633 181.209  0.00  0.00    -0.491 OA
ATOM     27  C   LIG    1       31.642  16.946 179.868  0.00  0.00    +0.277 C 
ENDBRANCH  22  26
BRANCH  23  28
ATOM     28  O   LIG    1       29.788  15.277 182.384  0.00  0.00    -0.491 OA
ATOM     29  C   LIG    1       28.377  14.974 182.312  0.00  0.00    +0.277 C 
ENDBRANCH  23  28
ENDBRANCH  19  20
ENDBRANCH   3  19
TORSDOF 7
