REMARK VINA RESULT:      -7.0     26.989     29.779
REMARK  Name = ZINC000006087400
REMARK                            x       y       z     vdW  Elec       q    Type
REMARK                         _______ _______ _______ _____ _____    ______ ____
ROOT
ATOM      1  C   LIG    1       23.335  41.366 209.612  0.00  0.00    +0.214 C 
ENDROOT
BRANCH   1   7
ATOM      2  C   LIG    1       19.357  39.918 208.152  0.00  0.00    +0.010 C 
ATOM      3  C   LIG    1       18.832  39.876 209.604  0.00  0.00    +0.018 C 
ATOM      4  C   LIG    1       19.985  40.005 210.655  0.00  0.00    +0.115 C 
ATOM      5  C   LIG    1       20.953  41.162 210.385  0.00  0.00    +0.247 C 
ATOM      6  O   LIG    1       20.782  42.368 210.417  0.00  0.00    -0.273 OA
ATOM      7  N   LIG    1       22.168  40.620 210.092  0.00  0.00    -0.215 N 
ATOM      8  C   LIG    1       22.107  39.253 210.147  0.00  0.00    +0.310 C 
ATOM      9  O   LIG    1       23.017  38.495 209.869  0.00  0.00    -0.252 OA
ATOM     10  N   LIG    1       20.880  38.863 210.543  0.00  0.00    -0.285 N 
ATOM     11  H   LIG    1       20.578  37.900 210.356  0.00  0.00    +0.151 HD
ATOM     12  C   LIG    1       19.429  40.012 212.102  0.00  0.00    +0.035 C 
ATOM     13  C   LIG    1       18.396  41.144 212.259  0.00  0.00    +0.003 C 
ATOM     14  C   LIG    1       17.260  41.015 211.237  0.00  0.00    +0.000 C 
ATOM     15  C   LIG    1       17.814  41.014 209.806  0.00  0.00    +0.006 C 
ENDBRANCH   1   7
BRANCH   1  16
ATOM     16  C   LIG    1       24.056  41.928 210.839  0.00  0.00    +0.238 C 
ATOM     17  N   LIG    1       24.456  43.255 210.865  0.00  0.00    -0.267 N 
ATOM     18  O   LIG    1       24.289  41.228 211.814  0.00  0.00    -0.274 OA
BRANCH  17  19
ATOM     19  C   LIG    1       24.347  44.103 209.737  0.00  0.00    +0.010 C 
ATOM     20  C   LIG    1       25.404  43.900 208.666  0.00  0.00    +0.051 C 
ATOM     21  C   LIG    1       25.440  45.177 207.797  0.00  0.00    +0.006 C 
ATOM     22  C   LIG    1       24.001  45.455 207.314  0.00  0.00    +0.004 C 
ATOM     23  C   LIG    1       23.179  45.971 208.516  0.00  0.00    +0.029 C 
ATOM     24  C   LIG    1       23.346  44.999 209.669  0.00  0.00    -0.008 C 
ENDBRANCH  17  19
BRANCH  17  25
ATOM     25  C   LIG    1       25.085  43.800 212.083  0.00  0.00    +0.187 C 
BRANCH  25  26
ATOM     26  C   LIG    1       26.574  43.826 211.803  0.00  0.00    +0.122 A 
ATOM     27  O   LIG    1       27.293  42.669 211.771  0.00  0.00    -0.466 OA
ATOM     28  C   LIG    1       28.582  43.001 211.512  0.00  0.00    +0.195 A 
ATOM     29  C   LIG    1       28.685  44.343 211.380  0.00  0.00    +0.041 A 
ATOM     30  C   LIG    1       27.403  44.869 211.568  0.00  0.00    +0.046 A 
ENDBRANCH  25  26
ENDBRANCH  17  25
ENDBRANCH   1  16
TORSDOF 5
