REMARK VINA RESULT:      -8.1     28.825     29.777
REMARK  Name = ZINC000000607845
REMARK                            x       y       z     vdW  Elec       q    Type
REMARK                         _______ _______ _______ _____ _____    ______ ____
ROOT
ATOM      1  C   LIG    1       26.138  43.402 182.900  0.00  0.00    -0.021 A 
ATOM      2  C   LIG    1       25.989  44.778 182.604  0.00  0.00    +0.003 A 
ATOM      3  C   LIG    1       24.972  45.718 182.845  0.00  0.00    +0.014 A 
ATOM      4  C   LIG    1       25.143  47.034 182.438  0.00  0.00    -0.045 A 
ATOM      5  C   LIG    1       26.331  47.426 181.770  0.00  0.00    +0.006 A 
ATOM      6  C   LIG    1       27.335  46.508 181.515  0.00  0.00    +0.026 A 
ATOM      7  C   LIG    1       27.139  45.190 181.944  0.00  0.00    +0.047 A 
ATOM      8  N   LIG    1       27.961  44.086 181.832  0.00  0.00    -0.360 N 
ATOM      9  H   LIG    1       28.890  44.080 181.380  0.00  0.00    +0.165 HD
ATOM     10  C   LIG    1       27.345  43.003 182.418  0.00  0.00    +0.087 A 
ENDROOT
BRANCH   1  11
ATOM     11  C   LIG    1       25.139  42.528 183.634  0.00  0.00    +0.056 C 
BRANCH  11  14
ATOM     12  C   LIG    1       23.235  43.878 185.295  0.00  0.00    +0.105 C 
ATOM     13  N   LIG    1       24.283  43.091 185.970  0.00  0.00    -0.302 NA
ATOM     14  C   LIG    1       25.446  42.639 185.152  0.00  0.00    +0.061 C 
ATOM     15  C   LIG    1       25.769  41.235 185.708  0.00  0.00    +0.020 C 
ATOM     16  C   LIG    1       25.027  41.208 187.043  0.00  0.00    +0.017 C 
ATOM     17  C   LIG    1       23.740  41.945 186.689  0.00  0.00    +0.084 C 
ENDBRANCH  11  14
ENDBRANCH   1  11
BRANCH   4  18
ATOM     18  C   LIG    1       24.069  48.061 182.731  0.00  0.00    +0.058 C 
BRANCH  18  19
ATOM     19  C   LIG    1       22.807  47.256 183.083  0.00  0.00    +0.176 C 
BRANCH  19  20
ATOM     20  S   LIG    1       22.125  47.562 184.695  0.00  0.00    -0.003 S 
ATOM     21  O   LIG    1       23.176  47.471 185.652  0.00  0.00    -0.169 OA
ATOM     22  O   LIG    1       21.006  46.701 184.879  0.00  0.00    -0.169 OA
BRANCH  20  23
ATOM     23  C   LIG    1       21.555  49.268 184.601  0.00  0.00    +0.088 A 
ATOM     24  C   LIG    1       20.207  49.555 184.366  0.00  0.00    +0.027 A 
ATOM     25  C   LIG    1       19.765  50.872 184.292  0.00  0.00    +0.002 A 
ATOM     26  C   LIG    1       20.669  51.919 184.445  0.00  0.00    +0.000 A 
ATOM     27  C   LIG    1       22.014  51.647 184.666  0.00  0.00    +0.002 A 
ATOM     28  C   LIG    1       22.455  50.329 184.740  0.00  0.00    +0.027 A 
ENDBRANCH  20  23
ENDBRANCH  19  20
ENDBRANCH  18  19
ENDBRANCH   4  18
TORSDOF 6
