MODEL 1
REMARK VINA RESULT:      -6.9      0.000      0.000
REMARK  Name = ZINC000000623134
REMARK                            x       y       z     vdW  Elec       q    Type
REMARK                         _______ _______ _______ _____ _____    ______ ____
ROOT
ATOM      1  N   LIG    1       24.059  42.195 185.951  0.00  0.00    -0.299 N 
ATOM      2  H   LIG    1       24.471  41.276 185.754  0.00  0.00    +0.150 HD
ENDROOT
BRANCH   1   5
ATOM      3  C   LIG    1       22.775  44.341 184.248  0.00  0.00    +0.409 C 
ATOM      4  N   LIG    1       23.789  43.457 184.021  0.00  0.00    -0.212 N 
ATOM      5  C   LIG    1       24.703  43.174 185.123  0.00  0.00    +0.235 C 
ATOM      6  S   LIG    1       26.088  42.210 184.385  0.00  0.00    -0.086 S 
ATOM      7  C   LIG    1       25.255  42.127 182.867  0.00  0.00    +0.006 C 
ATOM      8  C   LIG    1       25.618  41.462 181.578  0.00  0.00    +0.044 C 
ATOM      9  C   LIG    1       24.248  41.566 180.827  0.00  0.00    +0.011 C 
ATOM     10  C   LIG    1       23.431  42.732 181.476  0.00  0.00    +0.052 C 
ATOM     11  C   LIG    1       24.114  42.791 182.806  0.00  0.00    +0.029 C 
ATOM     12  O   LIG    1       22.628  44.904 185.332  0.00  0.00    -0.226 OA
BRANCH   3  13
ATOM     13  O   LIG    1       21.948  44.579 183.212  0.00  0.00    -0.450 OA
BRANCH  13  15
ATOM     14  C   LIG    1       21.832  46.144 181.463  0.00  0.00    +0.048 C 
ATOM     15  C   LIG    1       21.491  45.917 182.934  0.00  0.00    +0.230 C 
ENDBRANCH  13  15
ENDBRANCH   3  13
ENDBRANCH   1   5
BRANCH   1  16
ATOM     16  C   LIG    1       24.012  42.450 187.292  0.00  0.00    +0.136 C 
ATOM     17  S   LIG    1       25.356  42.260 188.274  0.00  0.00    -0.018 S 
BRANCH  16  18
ATOM     18  N   LIG    1       22.738  42.809 187.704  0.00  0.00    -0.297 N 
ATOM     19  H   LIG    1       21.970  42.275 187.256  0.00  0.00    +0.154 HD
BRANCH  18  20
ATOM     20  C   LIG    1       22.406  43.574 188.839  0.00  0.00    +0.033 A 
ATOM     21  C   LIG    1       21.774  44.801 188.628  0.00  0.00    +0.027 A 
ATOM     22  C   LIG    1       21.449  45.604 189.716  0.00  0.00    +0.047 A 
ATOM     23  C   LIG    1       21.766  45.174 191.008  0.00  0.00    +0.120 A 
ATOM     24  C   LIG    1       22.406  43.954 191.217  0.00  0.00    +0.047 A 
ATOM     25  C   LIG    1       22.732  43.150 190.131  0.00  0.00    +0.027 A 
BRANCH  23  26
ATOM     26  O   LIG    1       21.469  45.928 192.126  0.00  0.00    -0.495 OA
ATOM     27  C   LIG    1       20.153  46.420 192.463  0.00  0.00    +0.277 C 
ENDBRANCH  23  26
ENDBRANCH  18  20
ENDBRANCH  16  18
ENDBRANCH   1  16
TORSDOF 7
ENDMDL
MODEL 2
REMARK VINA RESULT:      -6.6      3.165      4.289
REMARK  Name = ZINC000000623134
REMARK                            x       y       z     vdW  Elec       q    Type
REMARK                         _______ _______ _______ _____ _____    ______ ____
ROOT
ATOM      1  N   LIG    1       22.816  46.878 184.673  0.00  0.00    -0.299 N 
ATOM      2  H   LIG    1       23.408  47.716 184.687  0.00  0.00    +0.150 HD
ENDROOT
BRANCH   1   5
ATOM      3  C   LIG    1       23.342  43.993 183.929  0.00  0.00    +0.409 C 
ATOM      4  N   LIG    1       23.809  45.178 183.441  0.00  0.00    -0.212 N 
ATOM      5  C   LIG    1       22.874  46.296 183.362  0.00  0.00    +0.235 C 
ATOM      6  S   LIG    1       23.740  47.601 182.394  0.00  0.00    -0.086 S 
ATOM      7  C   LIG    1       25.199  46.664 182.387  0.00  0.00    +0.006 C 
ATOM      8  C   LIG    1       26.553  46.952 181.823  0.00  0.00    +0.044 C 
ATOM      9  C   LIG    1       27.373  45.798 182.493  0.00  0.00    +0.011 C 
ATOM     10  C   LIG    1       26.372  44.665 182.892  0.00  0.00    +0.052 C 
ATOM     11  C   LIG    1       25.109  45.467 182.941  0.00  0.00    +0.029 C 
ATOM     12  O   LIG    1       22.172  43.845 184.279  0.00  0.00    -0.226 OA
BRANCH   3  13
ATOM     13  O   LIG    1       24.230  42.982 183.991  0.00  0.00    -0.450 OA
BRANCH  13  15
ATOM     14  C   LIG    1       25.909  41.645 184.951  0.00  0.00    +0.048 C 
ATOM     15  C   LIG    1       24.658  42.463 185.266  0.00  0.00    +0.230 C 
ENDBRANCH  13  15
ENDBRANCH   3  13
ENDBRANCH   1   5
BRANCH   1  16
ATOM     16  C   LIG    1       21.576  47.128 185.187  0.00  0.00    +0.136 C 
ATOM     17  S   LIG    1       20.223  47.250 184.207  0.00  0.00    -0.018 S 
BRANCH  16  18
ATOM     18  N   LIG    1       21.615  47.315 186.560  0.00  0.00    -0.297 N 
ATOM     19  H   LIG    1       21.364  48.271 186.875  0.00  0.00    +0.154 HD
BRANCH  18  20
ATOM     20  C   LIG    1       21.659  46.309 187.545  0.00  0.00    +0.033 A 
ATOM     21  C   LIG    1       20.738  46.388 188.590  0.00  0.00    +0.027 A 
ATOM     22  C   LIG    1       20.758  45.432 189.600  0.00  0.00    +0.047 A 
ATOM     23  C   LIG    1       21.708  44.406 189.557  0.00  0.00    +0.120 A 
ATOM     24  C   LIG    1       22.634  44.333 188.518  0.00  0.00    +0.047 A 
ATOM     25  C   LIG    1       22.615  45.289 187.509  0.00  0.00    +0.027 A 
BRANCH  23  26
ATOM     26  O   LIG    1       21.776  43.429 190.531  0.00  0.00    -0.495 OA
ATOM     27  C   LIG    1       22.759  43.387 191.589  0.00  0.00    +0.277 C 
ENDBRANCH  23  26
ENDBRANCH  18  20
ENDBRANCH  16  18
ENDBRANCH   1  16
TORSDOF 7
ENDMDL
MODEL 3
REMARK VINA RESULT:      -6.6      2.609      8.112
REMARK  Name = ZINC000000623134
REMARK                            x       y       z     vdW  Elec       q    Type
REMARK                         _______ _______ _______ _____ _____    ______ ____
ROOT
ATOM      1  N   LIG    1       22.841  43.355 187.179  0.00  0.00    -0.299 N 
ATOM      2  H   LIG    1       21.926  43.500 186.738  0.00  0.00    +0.150 HD
ENDROOT
BRANCH   1   5
ATOM      3  C   LIG    1       23.806  44.088 189.951  0.00  0.00    +0.409 C 
ATOM      4  N   LIG    1       22.990  44.715 189.055  0.00  0.00    -0.212 N 
ATOM      5  C   LIG    1       23.336  44.620 187.640  0.00  0.00    +0.235 C 
ATOM      6  S   LIG    1       22.227  45.810 186.777  0.00  0.00    -0.086 S 
ATOM      7  C   LIG    1       21.365  46.115 188.250  0.00  0.00    +0.006 C 
ATOM      8  C   LIG    1       20.184  46.985 188.540  0.00  0.00    +0.044 C 
ATOM      9  C   LIG    1       19.823  46.477 189.976  0.00  0.00    +0.011 C 
ATOM     10  C   LIG    1       21.102  45.816 190.588  0.00  0.00    +0.052 C 
ATOM     11  C   LIG    1       21.841  45.510 189.324  0.00  0.00    +0.029 C 
ATOM     12  O   LIG    1       24.812  43.474 189.601  0.00  0.00    -0.226 OA
BRANCH   3  13
ATOM     13  O   LIG    1       23.458  44.192 191.248  0.00  0.00    -0.450 OA
BRANCH  13  15
ATOM     14  C   LIG    1       22.200  43.504 193.110  0.00  0.00    +0.048 C 
ATOM     15  C   LIG    1       23.148  43.014 192.018  0.00  0.00    +0.230 C 
ENDBRANCH  13  15
ENDBRANCH   3  13
ENDBRANCH   1   5
BRANCH   1  16
ATOM     16  C   LIG    1       23.671  42.615 186.385  0.00  0.00    +0.136 C 
ATOM     17  S   LIG    1       24.671  41.430 187.018  0.00  0.00    -0.018 S 
BRANCH  16  18
ATOM     18  N   LIG    1       23.608  43.015 185.059  0.00  0.00    -0.297 N 
ATOM     19  H   LIG    1       22.695  43.410 184.768  0.00  0.00    +0.154 HD
BRANCH  18  20
ATOM     20  C   LIG    1       24.697  43.215 184.190  0.00  0.00    +0.033 A 
ATOM     21  C   LIG    1       25.643  42.192 184.094  0.00  0.00    +0.027 A 
ATOM     22  C   LIG    1       26.750  42.353 183.267  0.00  0.00    +0.047 A 
ATOM     23  C   LIG    1       26.903  43.541 182.546  0.00  0.00    +0.120 A 
ATOM     24  C   LIG    1       25.964  44.566 182.649  0.00  0.00    +0.047 A 
ATOM     25  C   LIG    1       24.858  44.407 183.476  0.00  0.00    +0.027 A 
BRANCH  23  26
ATOM     26  O   LIG    1       27.981  43.758 181.710  0.00  0.00    -0.495 OA
ATOM     27  C   LIG    1       28.020  44.740 180.651  0.00  0.00    +0.277 C 
ENDBRANCH  23  26
ENDBRANCH  18  20
ENDBRANCH  16  18
ENDBRANCH   1  16
TORSDOF 7
ENDMDL
MODEL 4
REMARK VINA RESULT:      -6.5     29.935     31.273
REMARK  Name = ZINC000000623134
REMARK                            x       y       z     vdW  Elec       q    Type
REMARK                         _______ _______ _______ _____ _____    ______ ____
ROOT
ATOM      1  N   LIG    1       26.518  14.623 197.034  0.00  0.00    -0.299 N 
ATOM      2  H   LIG    1       26.488  14.007 196.214  0.00  0.00    +0.150 HD
ENDROOT
BRANCH   1   5
ATOM      3  C   LIG    1       23.858  15.480 198.193  0.00  0.00    +0.409 C 
ATOM      4  N   LIG    1       24.359  15.468 196.924  0.00  0.00    -0.212 N 
ATOM      5  C   LIG    1       25.766  15.811 196.746  0.00  0.00    +0.235 C 
ATOM      6  S   LIG    1       26.006  15.993 194.929  0.00  0.00    -0.086 S 
ATOM      7  C   LIG    1       24.391  15.436 194.634  0.00  0.00    +0.006 C 
ATOM      8  C   LIG    1       23.647  15.202 193.358  0.00  0.00    +0.044 C 
ATOM      9  C   LIG    1       22.409  14.417 193.910  0.00  0.00    +0.011 C 
ATOM     10  C   LIG    1       22.262  14.759 195.430  0.00  0.00    +0.052 C 
ATOM     11  C   LIG    1       23.662  15.206 195.712  0.00  0.00    +0.029 C 
ATOM     12  O   LIG    1       24.548  15.782 199.166  0.00  0.00    -0.226 OA
BRANCH   3  13
ATOM     13  O   LIG    1       22.557  15.157 198.325  0.00  0.00    -0.450 OA
BRANCH  13  15
ATOM     14  C   LIG    1       21.088  15.393 200.145  0.00  0.00    +0.048 C 
ATOM     15  C   LIG    1       22.094  14.448 199.492  0.00  0.00    +0.230 C 
ENDBRANCH  13  15
ENDBRANCH   3  13
ENDBRANCH   1   5
BRANCH   1  16
ATOM     16  C   LIG    1       27.795  14.792 197.490  0.00  0.00    +0.136 C 
ATOM     17  S   LIG    1       28.157  15.868 198.721  0.00  0.00    -0.018 S 
BRANCH  16  18
ATOM     18  N   LIG    1       28.703  14.026 196.776  0.00  0.00    -0.297 N 
ATOM     19  H   LIG    1       28.398  13.052 196.590  0.00  0.00    +0.154 HD
BRANCH  18  20
ATOM     20  C   LIG    1       29.810  14.498 196.046  0.00  0.00    +0.033 A 
ATOM     21  C   LIG    1       31.079  14.295 196.593  0.00  0.00    +0.027 A 
ATOM     22  C   LIG    1       32.202  14.766 195.922  0.00  0.00    +0.047 A 
ATOM     23  C   LIG    1       32.045  15.443 194.709  0.00  0.00    +0.120 A 
ATOM     24  C   LIG    1       30.778  15.653 194.167  0.00  0.00    +0.047 A 
ATOM     25  C   LIG    1       29.654  15.184 194.837  0.00  0.00    +0.027 A 
BRANCH  23  26
ATOM     26  O   LIG    1       33.123  15.933 193.997  0.00  0.00    -0.495 OA
ATOM     27  C   LIG    1       34.499  15.859 194.430  0.00  0.00    +0.277 C 
ENDBRANCH  23  26
ENDBRANCH  18  20
ENDBRANCH  16  18
ENDBRANCH   1  16
TORSDOF 7
ENDMDL
MODEL 5
REMARK VINA RESULT:      -6.5     22.677     24.914
REMARK  Name = ZINC000000623134
REMARK                            x       y       z     vdW  Elec       q    Type
REMARK                         _______ _______ _______ _____ _____    ______ ____
ROOT
ATOM      1  N   LIG    1       22.266  41.162 211.368  0.00  0.00    -0.299 N 
ATOM      2  H   LIG    1       22.150  41.398 212.360  0.00  0.00    +0.150 HD
ENDROOT
BRANCH   1   5
ATOM      3  C   LIG    1       20.204  40.197 209.375  0.00  0.00    +0.409 C 
ATOM      4  N   LIG    1       20.415  39.932 210.697  0.00  0.00    -0.212 N 
ATOM      5  C   LIG    1       21.796  39.823 211.156  0.00  0.00    +0.235 C 
ATOM      6  S   LIG    1       21.697  39.168 212.874  0.00  0.00    -0.086 S 
ATOM      7  C   LIG    1       19.969  39.301 212.854  0.00  0.00    +0.006 C 
ATOM      8  C   LIG    1       18.944  39.009 213.903  0.00  0.00    +0.044 C 
ATOM      9  C   LIG    1       17.689  39.673 213.245  0.00  0.00    +0.011 C 
ATOM     10  C   LIG    1       17.947  39.768 211.704  0.00  0.00    +0.052 C 
ATOM     11  C   LIG    1       19.442  39.693 211.707  0.00  0.00    +0.029 C 
ATOM     12  O   LIG    1       21.132  40.326 208.578  0.00  0.00    -0.226 OA
BRANCH   3  13
ATOM     13  O   LIG    1       18.919  40.294 208.984  0.00  0.00    -0.450 OA
BRANCH  13  15
ATOM     14  C   LIG    1       17.510  38.560 208.254  0.00  0.00    +0.048 C 
ATOM     15  C   LIG    1       18.472  39.645 207.776  0.00  0.00    +0.230 C 
ENDBRANCH  13  15
ENDBRANCH   3  13
ENDBRANCH   1   5
BRANCH   1  16
ATOM     16  C   LIG    1       23.523  41.456 210.924  0.00  0.00    +0.136 C 
ATOM     17  S   LIG    1       24.855  41.390 211.937  0.00  0.00    -0.018 S 
BRANCH  16  18
ATOM     18  N   LIG    1       23.521  41.855 209.596  0.00  0.00    -0.297 N 
ATOM     19  H   LIG    1       23.134  41.158 208.934  0.00  0.00    +0.154 HD
BRANCH  18  20
ATOM     20  C   LIG    1       23.696  43.166 209.113  0.00  0.00    +0.033 A 
ATOM     21  C   LIG    1       24.781  43.403 208.267  0.00  0.00    +0.027 A 
ATOM     22  C   LIG    1       25.011  44.686 207.784  0.00  0.00    +0.047 A 
ATOM     23  C   LIG    1       24.153  45.725 208.156  0.00  0.00    +0.120 A 
ATOM     24  C   LIG    1       23.075  45.491 209.007  0.00  0.00    +0.047 A 
ATOM     25  C   LIG    1       22.844  44.209 209.492  0.00  0.00    +0.027 A 
BRANCH  23  26
ATOM     26  O   LIG    1       24.331  47.020 207.708  0.00  0.00    -0.495 OA
ATOM     27  C   LIG    1       25.284  47.958 208.253  0.00  0.00    +0.277 C 
ENDBRANCH  23  26
ENDBRANCH  18  20
ENDBRANCH  16  18
ENDBRANCH   1  16
TORSDOF 7
ENDMDL
MODEL 6
REMARK VINA RESULT:      -6.4      4.300      8.402
REMARK  Name = ZINC000000623134
REMARK                            x       y       z     vdW  Elec       q    Type
REMARK                         _______ _______ _______ _____ _____    ______ ____
ROOT
ATOM      1  N   LIG    1       20.418  47.361 183.917  0.00  0.00    -0.299 N 
ATOM      2  H   LIG    1       19.665  47.839 183.412  0.00  0.00    +0.150 HD
ENDROOT
BRANCH   1   5
ATOM      3  C   LIG    1       20.911  47.127 186.893  0.00  0.00    +0.409 C 
ATOM      4  N   LIG    1       20.452  48.141 186.104  0.00  0.00    -0.212 N 
ATOM      5  C   LIG    1       21.060  48.305 184.788  0.00  0.00    +0.235 C 
ATOM      6  S   LIG    1       20.431  49.914 184.148  0.00  0.00    -0.086 S 
ATOM      7  C   LIG    1       19.363  50.065 185.505  0.00  0.00    +0.006 C 
ATOM      8  C   LIG    1       18.356  51.114 185.856  0.00  0.00    +0.044 C 
ATOM      9  C   LIG    1       17.603  50.385 187.018  0.00  0.00    +0.011 C 
ATOM     10  C   LIG    1       18.557  49.288 187.596  0.00  0.00    +0.052 C 
ATOM     11  C   LIG    1       19.465  49.116 186.419  0.00  0.00    +0.029 C 
ATOM     12  O   LIG    1       21.817  46.377 186.533  0.00  0.00    -0.226 OA
BRANCH   3  13
ATOM     13  O   LIG    1       20.329  47.000 188.101  0.00  0.00    -0.450 OA
BRANCH  13  15
ATOM     14  C   LIG    1       20.411  46.704 190.431  0.00  0.00    +0.048 C 
ATOM     15  C   LIG    1       20.902  46.136 189.102  0.00  0.00    +0.230 C 
ENDBRANCH  13  15
ENDBRANCH   3  13
ENDBRANCH   1   5
BRANCH   1  16
ATOM     16  C   LIG    1       21.222  46.651 183.071  0.00  0.00    +0.136 C 
ATOM     17  S   LIG    1       21.839  47.326 181.668  0.00  0.00    -0.018 S 
BRANCH  16  18
ATOM     18  N   LIG    1       21.390  45.342 183.495  0.00  0.00    -0.297 N 
ATOM     19  H   LIG    1       20.526  44.885 183.843  0.00  0.00    +0.154 HD
BRANCH  18  20
ATOM     20  C   LIG    1       22.492  44.508 183.229  0.00  0.00    +0.033 A 
ATOM     21  C   LIG    1       22.421  43.684 182.105  0.00  0.00    +0.027 A 
ATOM     22  C   LIG    1       23.474  42.823 181.814  0.00  0.00    +0.047 A 
ATOM     23  C   LIG    1       24.589  42.791 182.658  0.00  0.00    +0.120 A 
ATOM     24  C   LIG    1       24.655  43.607 183.785  0.00  0.00    +0.047 A 
ATOM     25  C   LIG    1       23.603  44.467 184.078  0.00  0.00    +0.027 A 
BRANCH  23  26
ATOM     26  O   LIG    1       25.664  41.957 182.420  0.00  0.00    -0.495 OA
ATOM     27  C   LIG    1       27.000  42.167 182.929  0.00  0.00    +0.277 C 
ENDBRANCH  23  26
ENDBRANCH  18  20
ENDBRANCH  16  18
ENDBRANCH   1  16
TORSDOF 7
ENDMDL
MODEL 7
REMARK VINA RESULT:      -6.3      4.718      6.552
REMARK  Name = ZINC000000623134
REMARK                            x       y       z     vdW  Elec       q    Type
REMARK                         _______ _______ _______ _____ _____    ______ ____
ROOT
ATOM      1  N   LIG    1       21.471  47.628 184.384  0.00  0.00    -0.299 N 
ATOM      2  H   LIG    1       21.597  47.588 183.367  0.00  0.00    +0.150 HD
ENDROOT
BRANCH   1   5
ATOM      3  C   LIG    1       19.514  49.462 185.784  0.00  0.00    +0.409 C 
ATOM      4  N   LIG    1       20.382  49.646 184.747  0.00  0.00    -0.212 N 
ATOM      5  C   LIG    1       21.678  48.979 184.820  0.00  0.00    +0.235 C 
ATOM      6  S   LIG    1       22.677  49.684 183.444  0.00  0.00    -0.086 S 
ATOM      7  C   LIG    1       21.299  50.558 182.857  0.00  0.00    +0.006 C 
ATOM      8  C   LIG    1       21.130  51.449 181.667  0.00  0.00    +0.044 C 
ATOM      9  C   LIG    1       19.569  51.575 181.648  0.00  0.00    +0.011 C 
ATOM     10  C   LIG    1       19.042  51.251 183.085  0.00  0.00    +0.052 C 
ATOM     11  C   LIG    1       20.207  50.461 183.594  0.00  0.00    +0.029 C 
ATOM     12  O   LIG    1       19.800  48.776 186.764  0.00  0.00    -0.226 OA
BRANCH   3  13
ATOM     13  O   LIG    1       18.325  50.088 185.685  0.00  0.00    -0.450 OA
BRANCH  13  15
ATOM     14  C   LIG    1       16.981  50.456 187.578  0.00  0.00    +0.048 C 
ATOM     15  C   LIG    1       17.965  51.125 186.620  0.00  0.00    +0.230 C 
ENDBRANCH  13  15
ENDBRANCH   3  13
ENDBRANCH   1   5
BRANCH   1  16
ATOM     16  C   LIG    1       22.187  46.654 185.020  0.00  0.00    +0.136 C 
ATOM     17  S   LIG    1       22.729  45.289 184.214  0.00  0.00    -0.018 S 
BRANCH  16  18
ATOM     18  N   LIG    1       22.335  46.922 186.372  0.00  0.00    -0.297 N 
ATOM     19  H   LIG    1       22.339  47.930 186.617  0.00  0.00    +0.154 HD
BRANCH  18  20
ATOM     20  C   LIG    1       22.180  46.008 187.432  0.00  0.00    +0.033 A 
ATOM     21  C   LIG    1       21.213  46.297 188.396  0.00  0.00    +0.027 A 
ATOM     22  C   LIG    1       21.039  45.437 189.476  0.00  0.00    +0.047 A 
ATOM     23  C   LIG    1       21.840  44.297 189.583  0.00  0.00    +0.120 A 
ATOM     24  C   LIG    1       22.812  44.014 188.625  0.00  0.00    +0.047 A 
ATOM     25  C   LIG    1       22.988  44.872 187.546  0.00  0.00    +0.027 A 
BRANCH  23  26
ATOM     26  O   LIG    1       21.713  43.407 190.632  0.00  0.00    -0.495 OA
ATOM     27  C   LIG    1       22.085  43.686 192.000  0.00  0.00    +0.277 C 
ENDBRANCH  23  26
ENDBRANCH  18  20
ENDBRANCH  16  18
ENDBRANCH   1  16
TORSDOF 7
ENDMDL
MODEL 8
REMARK VINA RESULT:      -6.3      3.700      5.577
REMARK  Name = ZINC000000623134
REMARK                            x       y       z     vdW  Elec       q    Type
REMARK                         _______ _______ _______ _____ _____    ______ ____
ROOT
ATOM      1  N   LIG    1       23.187  45.731 182.864  0.00  0.00    -0.299 N 
ATOM      2  H   LIG    1       23.774  45.804 182.025  0.00  0.00    +0.150 HD
ENDROOT
BRANCH   1   5
ATOM      3  C   LIG    1       23.453  43.741 185.127  0.00  0.00    +0.409 C 
ATOM      4  N   LIG    1       23.579  43.631 183.773  0.00  0.00    -0.212 N 
ATOM      5  C   LIG    1       22.658  44.399 182.941  0.00  0.00    +0.235 C 
ATOM      6  S   LIG    1       22.907  43.781 181.224  0.00  0.00    -0.086 S 
ATOM      7  C   LIG    1       24.241  42.802 181.742  0.00  0.00    +0.006 C 
ATOM      8  C   LIG    1       25.161  41.905 180.978  0.00  0.00    +0.044 C 
ATOM      9  C   LIG    1       26.257  41.653 182.069  0.00  0.00    +0.011 C 
ATOM     10  C   LIG    1       25.615  41.930 183.468  0.00  0.00    +0.052 C 
ATOM     11  C   LIG    1       24.481  42.809 183.042  0.00  0.00    +0.029 C 
ATOM     12  O   LIG    1       22.590  44.445 185.649  0.00  0.00    -0.226 OA
BRANCH   3  13
ATOM     13  O   LIG    1       24.319  43.022 185.867  0.00  0.00    -0.450 OA
BRANCH  13  15
ATOM     14  C   LIG    1       24.989  41.079 187.007  0.00  0.00    +0.048 C 
ATOM     15  C   LIG    1       23.837  42.065 186.831  0.00  0.00    +0.230 C 
ENDBRANCH  13  15
ENDBRANCH   3  13
ENDBRANCH   1   5
BRANCH   1  16
ATOM     16  C   LIG    1       22.292  46.760 182.943  0.00  0.00    +0.136 C 
ATOM     17  S   LIG    1       21.702  47.523 181.573  0.00  0.00    -0.018 S 
BRANCH  16  18
ATOM     18  N   LIG    1       22.010  47.099 184.257  0.00  0.00    -0.297 N 
ATOM     19  H   LIG    1       22.697  46.752 184.952  0.00  0.00    +0.154 HD
BRANCH  18  20
ATOM     20  C   LIG    1       21.097  48.076 184.695  0.00  0.00    +0.033 A 
ATOM     21  C   LIG    1       21.553  49.393 184.784  0.00  0.00    +0.027 A 
ATOM     22  C   LIG    1       20.696  50.390 185.236  0.00  0.00    +0.047 A 
ATOM     23  C   LIG    1       19.388  50.060 185.601  0.00  0.00    +0.120 A 
ATOM     24  C   LIG    1       18.934  48.744 185.521  0.00  0.00    +0.047 A 
ATOM     25  C   LIG    1       19.790  47.746 185.070  0.00  0.00    +0.027 A 
BRANCH  23  26
ATOM     26  O   LIG    1       18.492  51.007 186.056  0.00  0.00    -0.495 OA
ATOM     27  C   LIG    1       17.489  50.775 187.070  0.00  0.00    +0.277 C 
ENDBRANCH  23  26
ENDBRANCH  18  20
ENDBRANCH  16  18
ENDBRANCH   1  16
TORSDOF 7
ENDMDL
MODEL 9
REMARK VINA RESULT:      -6.1     28.455     30.395
REMARK  Name = ZINC000000623134
REMARK                            x       y       z     vdW  Elec       q    Type
REMARK                         _______ _______ _______ _____ _____    ______ ____
ROOT
ATOM      1  N   LIG    1       29.679  16.068 197.083  0.00  0.00    -0.299 N 
ATOM      2  H   LIG    1       28.712  16.359 197.268  0.00  0.00    +0.150 HD
ENDROOT
BRANCH   1   5
ATOM      3  C   LIG    1       31.958  17.213 198.710  0.00  0.00    +0.409 C 
ATOM      4  N   LIG    1       30.877  17.778 198.099  0.00  0.00    -0.212 N 
ATOM      5  C   LIG    1       30.466  17.236 196.808  0.00  0.00    +0.235 C 
ATOM      6  S   LIG    1       29.207  18.410 196.154  0.00  0.00    -0.086 S 
ATOM      7  C   LIG    1       29.224  19.297 197.644  0.00  0.00    +0.006 C 
ATOM      8  C   LIG    1       28.438  20.489 198.090  0.00  0.00    +0.044 C 
ATOM      9  C   LIG    1       28.783  20.479 199.618  0.00  0.00    +0.011 C 
ATOM     10  C   LIG    1       30.120  19.689 199.804  0.00  0.00    +0.052 C 
ATOM     11  C   LIG    1       30.102  18.886 198.541  0.00  0.00    +0.029 C 
ATOM     12  O   LIG    1       32.590  16.289 198.200  0.00  0.00    -0.226 OA
BRANCH   3  13
ATOM     13  O   LIG    1       32.310  17.734 199.901  0.00  0.00    -0.450 OA
BRANCH  13  15
ATOM     14  C   LIG    1       33.830  19.504 199.611  0.00  0.00    +0.048 C 
ATOM     15  C   LIG    1       33.681  18.090 200.168  0.00  0.00    +0.230 C 
ENDBRANCH  13  15
ENDBRANCH   3  13
ENDBRANCH   1   5
BRANCH   1  16
ATOM     16  C   LIG    1       29.734  15.053 196.171  0.00  0.00    +0.136 C 
ATOM     17  S   LIG    1       30.982  14.932 195.060  0.00  0.00    -0.018 S 
BRANCH  16  18
ATOM     18  N   LIG    1       28.629  14.220 196.259  0.00  0.00    -0.297 N 
ATOM     19  H   LIG    1       28.832  13.266 196.612  0.00  0.00    +0.154 HD
BRANCH  18  20
ATOM     20  C   LIG    1       27.277  14.609 196.214  0.00  0.00    +0.033 A 
ATOM     21  C   LIG    1       26.408  14.034 197.141  0.00  0.00    +0.027 A 
ATOM     22  C   LIG    1       25.058  14.368 197.120  0.00  0.00    +0.047 A 
ATOM     23  C   LIG    1       24.589  15.273 196.164  0.00  0.00    +0.120 A 
ATOM     24  C   LIG    1       25.455  15.841 195.232  0.00  0.00    +0.047 A 
ATOM     25  C   LIG    1       26.804  15.507 195.251  0.00  0.00    +0.027 A 
BRANCH  23  26
ATOM     26  O   LIG    1       23.259  15.643 196.094  0.00  0.00    -0.495 OA
ATOM     27  C   LIG    1       22.213  14.851 195.489  0.00  0.00    +0.277 C 
ENDBRANCH  23  26
ENDBRANCH  18  20
ENDBRANCH  16  18
ENDBRANCH   1  16
TORSDOF 7
ENDMDL
