REMARK VINA RESULT:      -8.1     14.355     17.465
REMARK  Name = ZINC000009035748
REMARK                            x       y       z     vdW  Elec       q    Type
REMARK                         _______ _______ _______ _____ _____    ______ ____
ROOT
ATOM      1  C   LIG    1       17.741  37.904 209.760  0.00  0.00    +0.218 C 
ATOM      2  N   LIG    1       18.758  38.656 210.242  0.00  0.00    -0.297 N 
ATOM      3  C   LIG    1       19.394  39.624 209.312  0.00  0.00    +0.143 C 
ATOM      4  C   LIG    1       20.820  39.940 209.761  0.00  0.00    -0.025 A 
ATOM      5  C   LIG    1       21.534  40.905 209.053  0.00  0.00    +0.028 A 
ATOM      6  C   LIG    1       22.837  41.228 209.430  0.00  0.00    +0.034 A 
ATOM      7  C   LIG    1       23.445  40.581 210.507  0.00  0.00    +0.023 A 
ATOM      8  C   LIG    1       22.734  39.617 211.211  0.00  0.00    +0.006 A 
ATOM      9  C   LIG    1       21.425  39.296 210.849  0.00  0.00    -0.041 A 
ATOM     10  C   LIG    1       20.670  38.240 211.629  0.00  0.00    +0.054 C 
ATOM     11  C   LIG    1       19.201  38.687 211.654  0.00  0.00    +0.113 C 
ATOM     12  O   LIG    1       17.357  38.053 208.602  0.00  0.00    -0.275 OA
ENDROOT
BRANCH   6  13
ATOM     13  N   LIG    1       23.512  42.205 208.662  0.00  0.00    -0.283 N 
ATOM     14  H   LIG    1       24.067  41.875 207.862  0.00  0.00    +0.155 HD
ATOM     15  C   LIG    1       23.526  43.565 208.855  0.00  0.00    +0.255 C 
ATOM     16  O   LIG    1       22.904  44.076 209.764  0.00  0.00    -0.272 OA
BRANCH  15  17
ATOM     17  C   LIG    1       24.309  44.400 207.858  0.00  0.00    +0.324 C 
BRANCH  17  18
ATOM     18  O   LIG    1       25.546  44.831 208.518  0.00  0.00    -0.483 OA
BRANCH  18  19
ATOM     19  C   LIG    1       25.735  46.071 209.091  0.00  0.00    +0.121 A 
ATOM     20  C   LIG    1       25.248  47.173 208.392  0.00  0.00    +0.047 A 
ATOM     21  C   LIG    1       25.407  48.449 208.921  0.00  0.00    +0.023 A 
ATOM     22  C   LIG    1       26.055  48.618 210.147  0.00  0.00    +0.041 A 
ATOM     23 CL   LIG    1       26.255  50.207 210.804  0.00  0.00    -0.084 Cl
ATOM     24  C   LIG    1       26.544  47.510 210.845  0.00  0.00    +0.023 A 
ATOM     25  C   LIG    1       26.385  46.231 210.319  0.00  0.00    +0.047 A 
ENDBRANCH  18  19
ENDBRANCH  17  18
ENDBRANCH  15  17
ENDBRANCH   6  13
BRANCH   1  27
ATOM     26  C   LIG    1       15.561  37.299 210.968  0.00  0.00    +0.017 C 
ATOM     27  C   LIG    1       17.010  36.874 210.660  0.00  0.00    +0.069 C 
ATOM     28  C   LIG    1       16.961  35.463 210.041  0.00  0.00    +0.017 C 
ENDBRANCH   1  27
TORSDOF 5
