REMARK VINA RESULT:      -8.2      6.976     11.951
REMARK  Name = ZINC000186872603
REMARK                            x       y       z     vdW  Elec       q    Type
REMARK                         _______ _______ _______ _____ _____    ______ ____
ROOT
ATOM      1  N   LIG    1       19.957  47.422 187.781  0.00  0.00    -0.297 N 
ATOM      2  C   LIG    1       19.208  48.665 188.103  0.00  0.00    +0.123 C 
ATOM      3  C   LIG    1       18.199  48.935 186.958  0.00  0.00    +0.103 C 
ATOM      4  N   LIG    1       18.909  49.071 185.653  0.00  0.00    -0.299 NA
ATOM      5  C   LIG    1       19.641  47.800 185.355  0.00  0.00    +0.103 C 
ATOM      6  C   LIG    1       20.662  47.451 186.472  0.00  0.00    +0.123 C 
ENDROOT
BRANCH   1  10
ATOM      7  C   LIG    1       19.951  46.306 192.419  0.00  0.00    +0.066 C 
ATOM      8  C   LIG    1       20.539  46.147 191.038  0.00  0.00    +0.044 A 
ATOM      9  N   LIG    1       20.011  46.837 190.048  0.00  0.00    -0.220 NA
ATOM     10  C   LIG    1       20.524  46.695 188.820  0.00  0.00    +0.218 A 
ATOM     11  N   LIG    1       21.554  45.889 188.538  0.00  0.00    -0.219 NA
ATOM     12  C   LIG    1       22.104  45.182 189.511  0.00  0.00    +0.049 A 
ATOM     13  C   LIG    1       21.604  45.294 190.800  0.00  0.00    +0.046 A 
BRANCH  12  14
ATOM     14  C   LIG    1       23.277  44.255 189.207  0.00  0.00    +0.032 C 
ATOM     15  C   LIG    1       22.841  43.210 188.168  0.00  0.00    +0.014 C 
ATOM     16  C   LIG    1       23.735  43.574 190.506  0.00  0.00    +0.014 C 
ENDBRANCH  12  14
ENDBRANCH   1  10
BRANCH   4  17
ATOM     17  C   LIG    1       19.739  50.293 185.584  0.00  0.00    +0.085 C 
BRANCH  17  18
ATOM     18  C   LIG    1       18.852  51.332 184.875  0.00  0.00    +0.025 C 
BRANCH  18  19
ATOM     19  C   LIG    1       18.089  50.630 183.736  0.00  0.00    +0.097 C 
BRANCH  19  20
ATOM     20  C   LIG    1       18.604  51.156 182.413  0.00  0.00    +0.197 A 
ATOM     21  O   LIG    1       19.929  51.436 182.286  0.00  0.00    -0.440 OA
ATOM     22  C   LIG    1       20.067  51.864 181.027  0.00  0.00    +0.155 A 
ATOM     23  C   LIG    1       21.214  52.284 180.357  0.00  0.00    +0.048 A 
ATOM     24  C   LIG    1       21.075  52.683 179.031  0.00  0.00    +0.004 A 
ATOM     25  C   LIG    1       19.811  52.656 178.408  0.00  0.00    +0.002 A 
ATOM     26  C   LIG    1       18.683  52.230 179.107  0.00  0.00    +0.031 A 
ATOM     27  C   LIG    1       18.827  51.829 180.437  0.00  0.00    +0.110 A 
ATOM     28  N   LIG    1       17.913  51.368 181.355  0.00  0.00    -0.213 NA
ENDBRANCH  19  20
ENDBRANCH  18  19
ENDBRANCH  17  18
ENDBRANCH   4  17
TORSDOF 6
