REMARK VINA RESULT:      -7.4     12.738     15.548
REMARK  Name = ZINC000022625070
REMARK                            x       y       z     vdW  Elec       q    Type
REMARK                         _______ _______ _______ _____ _____    ______ ____
ROOT
ATOM      1  C   LIG    1       19.339  40.342 209.243  0.00  0.00    +0.171 A 
ATOM      2  C   LIG    1       18.851  39.157 209.796  0.00  0.00    +0.032 A 
ATOM      3  C   LIG    1       19.050  38.476 211.138  0.00  0.00    +0.046 C 
ATOM      4  C   LIG    1       17.765  37.667 211.469  0.00  0.00    +0.040 C 
ATOM      5  C   LIG    1       17.311  36.811 210.277  0.00  0.00    -0.036 A 
ATOM      6  C   LIG    1       17.447  37.308 208.969  0.00  0.00    +0.027 A 
ATOM      7  C   LIG    1       16.955  36.576 207.886  0.00  0.00    +0.057 A 
ATOM      8  C   LIG    1       16.348  35.342 208.115  0.00  0.00    +0.121 A 
ATOM      9  C   LIG    1       16.225  34.836 209.406  0.00  0.00    +0.046 A 
ATOM     10  C   LIG    1       16.702  35.575 210.485  0.00  0.00    +0.008 A 
ATOM     11  C   LIG    1       18.133  38.569 208.830  0.00  0.00    +0.171 A 
ATOM     12  O   LIG    1       18.183  39.355 207.747  0.00  0.00    -0.354 OA
ATOM     13  N   LIG    1       18.917  40.435 208.001  0.00  0.00    -0.073 NA
ENDROOT
BRANCH   1  16
ATOM     14  N   LIG    1       21.318  41.753 209.245  0.00  0.00    -0.307 N 
ATOM     15  H   LIG    1       21.518  41.282 208.353  0.00  0.00    +0.149 HD
ATOM     16  C   LIG    1       20.194  41.335 209.902  0.00  0.00    +0.266 C 
ATOM     17  O   LIG    1       19.973  41.814 211.013  0.00  0.00    -0.268 OA
BRANCH  14  18
ATOM     18  C   LIG    1       22.364  42.551 209.854  0.00  0.00    +0.070 C 
ATOM     19  C   LIG    1       21.989  44.012 209.603  0.00  0.00    +0.028 C 
BRANCH  18  20
ATOM     20  C   LIG    1       23.707  42.144 209.221  0.00  0.00    +0.023 C 
BRANCH  20  21
ATOM     21  C   LIG    1       24.354  43.185 208.281  0.00  0.00    +0.017 C 
BRANCH  21  22
ATOM     22  C   LIG    1       25.650  43.662 208.980  0.00  0.00    +0.084 C 
BRANCH  22  23
ATOM     23  N   LIG    1       25.938  45.073 208.611  0.00  0.00    -0.303 NA
BRANCH  23  25
ATOM     24  C   LIG    1       25.300  47.062 207.479  0.00  0.00    +0.020 C 
ATOM     25  C   LIG    1       25.174  45.537 207.431  0.00  0.00    +0.081 C 
ENDBRANCH  23  25
BRANCH  23  26
ATOM     26  C   LIG    1       25.877  46.004 209.755  0.00  0.00    +0.081 C 
ATOM     27  C   LIG    1       27.032  45.590 210.674  0.00  0.00    +0.020 C 
ENDBRANCH  23  26
ENDBRANCH  22  23
ENDBRANCH  21  22
ENDBRANCH  20  21
ENDBRANCH  18  20
ENDBRANCH  14  18
ENDBRANCH   1  16
BRANCH   8  28
ATOM     28  O   LIG    1       15.849  34.573 207.089  0.00  0.00    -0.495 OA
ATOM     29  C   LIG    1       14.941  33.459 207.251  0.00  0.00    +0.277 C 
ENDBRANCH   8  28
TORSDOF 9
