REMARK VINA RESULT:      -7.1      2.667      3.529
REMARK  Name = ZINC000078751741
REMARK                            x       y       z     vdW  Elec       q    Type
REMARK                         _______ _______ _______ _____ _____    ______ ____
ROOT
ATOM      1  S   LIG    1       25.313  44.058 183.495  0.00  0.00    +0.073 S 
ATOM      2  O   LIG    1       24.550  45.247 183.614  0.00  0.00    -0.150 OA
ATOM      3  O   LIG    1       26.561  44.013 184.165  0.00  0.00    -0.150 OA
ENDROOT
BRANCH   1   6
ATOM      4  C   LIG    1       27.012  45.816 181.196  0.00  0.00    +0.053 C 
ATOM      5  C   LIG    1       26.303  44.514 180.886  0.00  0.00    +0.014 A 
ATOM      6  C   LIG    1       25.576  43.723 181.748  0.00  0.00    +0.119 A 
ATOM      7  C   LIG    1       25.049  42.590 181.102  0.00  0.00    +0.051 A 
ATOM      8  C   LIG    1       25.382  42.502 179.769  0.00  0.00    +0.098 A 
ATOM      9  S   LIG    1       26.349  43.857 179.292  0.00  0.00    -0.085 S 
BRANCH   8  10
ATOM     10  C   LIG    1       25.020  41.450 178.841  0.00  0.00    +0.344 C 
ATOM     11  O   LIG    1       25.319  41.426 177.665  0.00  0.00    -0.245 OA
BRANCH  10  12
ATOM     12  O   LIG    1       24.304  40.427 179.292  0.00  0.00    -0.477 OA
ATOM     13  H   LIG    1       24.887  39.931 179.892  0.00  0.00    +0.295 HD
ENDBRANCH  10  12
ENDBRANCH   8  10
ENDBRANCH   1   6
BRANCH   1  14
ATOM     14  N   LIG    1       24.396  42.795 184.042  0.00  0.00    -0.213 N 
ATOM     15  H   LIG    1       24.904  42.024 183.591  0.00  0.00    +0.174 HD
BRANCH  14  16
ATOM     16  C   LIG    1       24.431  42.642 185.434  0.00  0.00    +0.084 A 
ATOM     17  C   LIG    1       25.340  41.769 186.037  0.00  0.00    +0.146 A 
ATOM     18  F   LIG    1       26.175  41.040 185.264  0.00  0.00    -0.204 F 
ATOM     19  C   LIG    1       25.407  41.632 187.414  0.00  0.00    +0.041 A 
ATOM     20  C   LIG    1       24.536  42.376 188.213  0.00  0.00    +0.015 A 
ATOM     21  C   LIG    1       23.596  43.247 187.632  0.00  0.00    +0.057 A 
ATOM     22  C   LIG    1       23.537  43.356 186.235  0.00  0.00    +0.039 A 
BRANCH  21  23
ATOM     23  C   LIG    1       22.621  44.058 188.499  0.00  0.00    +0.417 C 
ATOM     24  F   LIG    1       22.146  45.117 187.823  0.00  0.00    -0.166 F 
ATOM     25  F   LIG    1       23.261  44.487 189.596  0.00  0.00    -0.166 F 
ATOM     26  F   LIG    1       21.586  43.278 188.872  0.00  0.00    -0.166 F 
ENDBRANCH  21  23
ENDBRANCH  14  16
ENDBRANCH   1  14
TORSDOF 6
