REMARK VINA RESULT:     -10.2      0.000      0.000
REMARK  Name = ZINC000000603769
REMARK                            x       y       z     vdW  Elec       q    Type
REMARK                         _______ _______ _______ _____ _____    ______ ____
ROOT
ATOM      1  C   LIG    1       33.099  18.722 185.581  0.00  0.00    +0.139 A 
ATOM      2  N   LIG    1       33.085  18.461 184.251  0.00  0.00    -0.336 N 
ATOM      3  H   LIG    1       33.858  18.625 183.588  0.00  0.00    +0.167 HD
ATOM      4  C   LIG    1       31.897  17.943 183.909  0.00  0.00    +0.093 A 
ATOM      5  C   LIG    1       31.169  17.934 185.074  0.00  0.00    +0.099 A 
ATOM      6  N   LIG    1       31.935  18.396 186.100  0.00  0.00    -0.227 NA
ENDROOT
BRANCH   5   7
ATOM      7  C   LIG    1       29.779  17.531 185.243  0.00  0.00    +0.006 A 
ATOM      8  C   LIG    1       29.355  16.935 186.443  0.00  0.00    +0.059 A 
ATOM      9  C   LIG    1       28.030  16.546 186.564  0.00  0.00    +0.167 A 
ATOM     10  O   LIG    1       27.446  15.951 187.628  0.00  0.00    -0.453 OA
ATOM     11  C   LIG    1       26.026  15.749 187.259  0.00  0.00    +0.466 C 
ATOM     12  O   LIG    1       25.903  16.282 185.881  0.00  0.00    -0.453 OA
ATOM     13  C   LIG    1       27.128  16.739 185.547  0.00  0.00    +0.166 A 
ATOM     14  C   LIG    1       27.507  17.339 184.354  0.00  0.00    +0.050 A 
ATOM     15  C   LIG    1       28.837  17.738 184.211  0.00  0.00    +0.014 A 
ENDBRANCH   5   7
BRANCH   1  19
ATOM     16  C   LIG    1       36.526  20.404 187.538  0.00  0.00    +0.037 A 
ATOM     17  C   LIG    1       35.845  21.105 186.530  0.00  0.00    +0.014 A 
ATOM     18  C   LIG    1       34.738  20.547 185.903  0.00  0.00    +0.012 A 
ATOM     19  C   LIG    1       34.265  19.277 186.260  0.00  0.00    +0.017 A 
ATOM     20  C   LIG    1       34.943  18.580 187.274  0.00  0.00    +0.012 A 
ATOM     21  C   LIG    1       36.052  19.136 187.901  0.00  0.00    +0.014 A 
BRANCH  16  25
ATOM     22  N   LIG    1       38.727  21.500 187.514  0.00  0.00    -0.325 N 
ATOM     23  H   LIG    1       38.764  21.448 186.490  0.00  0.00    +0.145 HD
ATOM     24  H   LIG    1       39.543  21.822 188.050  0.00  0.00    +0.145 HD
ATOM     25  C   LIG    1       37.704  20.961 188.212  0.00  0.00    +0.242 C 
ATOM     26  O   LIG    1       37.861  20.974 189.421  0.00  0.00    -0.270 OA
ENDBRANCH  16  25
ENDBRANCH   1  19
BRANCH   4  27
ATOM     27  C   LIG    1       31.648  17.516 182.547  0.00  0.00    +0.089 A 
ATOM     28  N   LIG    1       32.594  17.794 181.629  0.00  0.00    -0.253 NA
ATOM     29  C   LIG    1       32.423  17.429 180.361  0.00  0.00    +0.111 A 
ATOM     30  C   LIG    1       31.284  16.749 179.939  0.00  0.00    +0.020 A 
ATOM     31  C   LIG    1       30.299  16.432 180.861  0.00  0.00    +0.004 A 
ATOM     32  C   LIG    1       30.491  16.817 182.178  0.00  0.00    +0.030 A 
ENDBRANCH   4  27
TORSDOF 4
