REMARK VINA RESULT:      -7.2     29.722     33.306
REMARK  Name = ZINC000000622956
REMARK                            x       y       z     vdW  Elec       q    Type
REMARK                         _______ _______ _______ _____ _____    ______ ____
ROOT
ATOM      1  C   LIG    1       28.326  25.453 209.198  0.00  0.00    +0.271 C 
ATOM      2  N   LIG    1       27.992  24.449 208.217  0.00  0.00    -0.157 N 
ATOM      3  C   LIG    1       27.642  24.976 207.064  0.00  0.00    +0.250 C 
ATOM      4  C   LIG    1       27.269  24.188 205.817  0.00  0.00    +0.124 C 
ATOM      5  C   LIG    1       28.413  24.365 204.793  0.00  0.00    +0.012 C 
ATOM      6  C   LIG    1       28.288  25.735 204.101  0.00  0.00    +0.004 C 
ATOM      7  C   LIG    1       28.557  26.970 204.987  0.00  0.00    +0.045 C 
ATOM      8  C   LIG    1       27.400  27.171 205.984  0.00  0.00    +0.236 C 
ATOM      9  N   LIG    1       27.678  26.283 207.121  0.00  0.00    -0.258 N 
ATOM     10  C   LIG    1       28.135  26.785 208.434  0.00  0.00    +0.323 C 
ENDROOT
BRANCH   1  11
ATOM     11  C   LIG    1       27.405  25.376 210.421  0.00  0.00    +0.034 A 
ATOM     12  C   LIG    1       27.897  25.000 211.684  0.00  0.00    +0.060 A 
ATOM     13  C   LIG    1       27.018  24.958 212.756  0.00  0.00    +0.167 A 
ATOM     14  O   LIG    1       27.308  24.621 214.030  0.00  0.00    -0.453 OA
ATOM     15  C   LIG    1       26.037  24.747 214.787  0.00  0.00    +0.466 C 
ATOM     16  O   LIG    1       25.031  25.171 213.783  0.00  0.00    -0.453 OA
ATOM     17  C   LIG    1       25.694  25.279 212.613  0.00  0.00    +0.166 A 
ATOM     18  C   LIG    1       25.175  25.661 211.387  0.00  0.00    +0.050 A 
ATOM     19  C   LIG    1       26.039  25.710 210.291  0.00  0.00    +0.014 A 
ENDBRANCH   1  11
BRANCH   2  20
ATOM     20  C   LIG    1       28.119  23.059 208.452  0.00  0.00    +0.124 A 
ATOM     21  C   LIG    1       27.068  22.391 209.079  0.00  0.00    +0.050 A 
ATOM     22  C   LIG    1       27.182  21.025 209.319  0.00  0.00    +0.024 A 
ATOM     23  C   LIG    1       28.341  20.344 208.933  0.00  0.00    +0.041 A 
ATOM     24 CL   LIG    1       28.480  18.645 209.234  0.00  0.00    -0.084 Cl
ATOM     25  C   LIG    1       29.390  21.027 208.308  0.00  0.00    +0.024 A 
ATOM     26  C   LIG    1       29.281  22.393 208.065  0.00  0.00    +0.050 A 
ENDBRANCH   2  20
BRANCH   1  27
ATOM     27  O   LIG    1       29.692  25.251 209.536  0.00  0.00    -0.347 OA
ATOM     28  H   LIG    1       29.723  24.831 210.408  0.00  0.00    +0.215 HD
ENDBRANCH   1  27
TORSDOF 3
