MODEL 1
REMARK VINA RESULT:      -8.5      0.000      0.000
REMARK  Name = ZINC000006086011
REMARK                            x       y       z     vdW  Elec       q    Type
REMARK                         _______ _______ _______ _____ _____    ______ ____
ROOT
ATOM      1  N   LIG    1       34.151  19.834 186.500  0.00  0.00    -0.286 NA
ATOM      2  C   LIG    1       34.158  21.030 185.629  0.00  0.00    +0.106 C 
ENDROOT
BRANCH   1   3
ATOM      3  C   LIG    1       35.517  19.505 187.069  0.00  0.00    +0.140 C 
ATOM      4  C   LIG    1       35.773  17.980 187.020  0.00  0.00    +0.034 C 
BRANCH   3   7
ATOM      5  N   LIG    1       36.700  19.578 189.206  0.00  0.00    -0.281 N 
ATOM      6  H   LIG    1       37.326  18.985 188.637  0.00  0.00    +0.155 HD
ATOM      7  C   LIG    1       35.607  20.033 188.516  0.00  0.00    +0.234 C 
ATOM      8  O   LIG    1       34.820  20.815 189.017  0.00  0.00    -0.274 OA
BRANCH   5  10
ATOM      9  C   LIG    1       37.309  18.746 191.370  0.00  0.00    +0.141 A 
ATOM     10  C   LIG    1       37.164  19.852 190.519  0.00  0.00    +0.076 A 
ATOM     11  C   LIG    1       37.461  21.135 190.985  0.00  0.00    +0.027 A 
ATOM     12  C   LIG    1       37.911  21.303 192.292  0.00  0.00    +0.002 A 
ATOM     13  C   LIG    1       38.061  20.202 193.136  0.00  0.00    +0.004 A 
ATOM     14  C   LIG    1       37.759  18.921 192.678  0.00  0.00    +0.047 A 
BRANCH   9  16
ATOM     15  C   LIG    1       36.281  16.454 191.579  0.00  0.00    +0.277 C 
ATOM     16  O   LIG    1       37.004  17.485 190.862  0.00  0.00    -0.493 OA
ENDBRANCH   9  16
ENDBRANCH   5  10
ENDBRANCH   3   7
ENDBRANCH   1   3
BRANCH   1  17
ATOM     17  C   LIG    1       33.469  18.662 185.829  0.00  0.00    +0.181 C 
BRANCH  17  18
ATOM     18  C   LIG    1       31.964  18.723 186.074  0.00  0.00    +0.231 C 
ATOM     19  N   LIG    1       31.229  17.636 185.668  0.00  0.00    -0.284 N 
ATOM     20  H   LIG    1       31.768  16.857 185.262  0.00  0.00    +0.155 HD
ATOM     21  O   LIG    1       31.427  19.692 186.575  0.00  0.00    -0.274 OA
BRANCH  19  22
ATOM     22  C   LIG    1       29.823  17.486 185.697  0.00  0.00    +0.041 A 
ATOM     23  C   LIG    1       29.142  17.263 184.460  0.00  0.00    +0.003 A 
ATOM     24  C   LIG    1       29.793  17.270 183.195  0.00  0.00    +0.010 A 
ATOM     25  C   LIG    1       29.094  17.014 182.039  0.00  0.00    +0.001 A 
ATOM     26  C   LIG    1       27.711  16.753 182.089  0.00  0.00    +0.001 A 
ATOM     27  C   LIG    1       27.049  16.759 183.294  0.00  0.00    +0.008 A 
ATOM     28  C   LIG    1       27.744  17.021 184.501  0.00  0.00    -0.016 A 
ATOM     29  C   LIG    1       27.067  17.047 185.748  0.00  0.00    +0.008 A 
ATOM     30  C   LIG    1       27.750  17.286 186.917  0.00  0.00    +0.002 A 
ATOM     31  C   LIG    1       29.140  17.502 186.899  0.00  0.00    +0.024 A 
ENDBRANCH  19  22
ENDBRANCH  17  18
ENDBRANCH   1  17
TORSDOF 7
ENDMDL
MODEL 2
REMARK VINA RESULT:      -8.5     29.230     30.997
REMARK  Name = ZINC000006086011
REMARK                            x       y       z     vdW  Elec       q    Type
REMARK                         _______ _______ _______ _____ _____    ______ ____
ROOT
ATOM      1  N   LIG    1       22.838  46.082 183.955  0.00  0.00    -0.286 NA
ATOM      2  C   LIG    1       23.905  46.391 182.979  0.00  0.00    +0.106 C 
ENDROOT
BRANCH   1   3
ATOM      3  C   LIG    1       23.194  44.936 184.882  0.00  0.00    +0.140 C 
ATOM      4  C   LIG    1       22.641  43.600 184.332  0.00  0.00    +0.034 C 
BRANCH   3   7
ATOM      5  N   LIG    1       22.947  44.274 187.222  0.00  0.00    -0.281 N 
ATOM      6  H   LIG    1       23.555  43.524 186.851  0.00  0.00    +0.155 HD
ATOM      7  C   LIG    1       22.631  45.227 186.290  0.00  0.00    +0.234 C 
ATOM      8  O   LIG    1       21.998  46.222 186.589  0.00  0.00    -0.274 OA
BRANCH   5  10
ATOM      9  C   LIG    1       23.697  43.688 189.421  0.00  0.00    +0.141 A 
ATOM     10  C   LIG    1       22.667  44.186 188.611  0.00  0.00    +0.076 A 
ATOM     11  C   LIG    1       21.446  44.552 189.180  0.00  0.00    +0.027 A 
ATOM     12  C   LIG    1       21.266  44.430 190.555  0.00  0.00    +0.002 A 
ATOM     13  C   LIG    1       22.293  43.940 191.362  0.00  0.00    +0.004 A 
ATOM     14  C   LIG    1       23.511  43.566 190.798  0.00  0.00    +0.047 A 
BRANCH   9  16
ATOM     15  C   LIG    1       25.176  42.053 188.197  0.00  0.00    +0.277 C 
ATOM     16  O   LIG    1       24.900  43.337 188.811  0.00  0.00    -0.493 OA
ENDBRANCH   9  16
ENDBRANCH   5  10
ENDBRANCH   3   7
ENDBRANCH   1   3
BRANCH   1  17
ATOM     17  C   LIG    1       21.493  45.925 183.277  0.00  0.00    +0.181 C 
BRANCH  17  18
ATOM     18  C   LIG    1       20.790  47.277 183.197  0.00  0.00    +0.231 C 
ATOM     19  N   LIG    1       21.080  48.183 184.187  0.00  0.00    -0.284 N 
ATOM     20  H   LIG    1       21.778  47.878 184.882  0.00  0.00    +0.155 HD
ATOM     21  O   LIG    1       19.988  47.541 182.321  0.00  0.00    -0.274 OA
BRANCH  19  22
ATOM     22  C   LIG    1       20.499  49.456 184.390  0.00  0.00    +0.041 A 
ATOM     23  C   LIG    1       19.508  49.592 185.412  0.00  0.00    +0.003 A 
ATOM     24  C   LIG    1       19.016  48.497 186.176  0.00  0.00    +0.010 A 
ATOM     25  C   LIG    1       18.088  48.691 187.171  0.00  0.00    +0.001 A 
ATOM     26  C   LIG    1       17.597  49.983 187.443  0.00  0.00    +0.001 A 
ATOM     27  C   LIG    1       18.038  51.058 186.709  0.00  0.00    +0.008 A 
ATOM     28  C   LIG    1       18.993  50.888 185.675  0.00  0.00    -0.016 A 
ATOM     29  C   LIG    1       19.442  51.989 184.901  0.00  0.00    +0.008 A 
ATOM     30  C   LIG    1       20.381  51.819 183.910  0.00  0.00    +0.002 A 
ATOM     31  C   LIG    1       20.921  50.546 183.652  0.00  0.00    +0.024 A 
ENDBRANCH  19  22
ENDBRANCH  17  18
ENDBRANCH   1  17
TORSDOF 7
ENDMDL
MODEL 3
REMARK VINA RESULT:      -8.3     29.657     31.966
REMARK  Name = ZINC000006086011
REMARK                            x       y       z     vdW  Elec       q    Type
REMARK                         _______ _______ _______ _____ _____    ______ ____
ROOT
ATOM      1  N   LIG    1       22.055  46.191 184.047  0.00  0.00    -0.286 NA
ATOM      2  C   LIG    1       21.876  44.893 183.361  0.00  0.00    +0.106 C 
ENDROOT
BRANCH   1   3
ATOM      3  C   LIG    1       22.519  47.296 183.117  0.00  0.00    +0.140 C 
ATOM      4  C   LIG    1       24.056  47.457 183.190  0.00  0.00    +0.034 C 
BRANCH   3   7
ATOM      5  N   LIG    1       20.543  48.436 183.994  0.00  0.00    -0.281 N 
ATOM      6  H   LIG    1       20.273  47.443 184.083  0.00  0.00    +0.155 HD
ATOM      7  C   LIG    1       21.808  48.612 183.496  0.00  0.00    +0.234 C 
ATOM      8  O   LIG    1       22.310  49.717 183.414  0.00  0.00    -0.274 OA
BRANCH   5  10
ATOM      9  C   LIG    1       18.638  49.827 183.568  0.00  0.00    +0.141 A 
ATOM     10  C   LIG    1       19.590  49.364 184.489  0.00  0.00    +0.076 A 
ATOM     11  C   LIG    1       19.569  49.827 185.806  0.00  0.00    +0.027 A 
ATOM     12  C   LIG    1       18.592  50.739 186.198  0.00  0.00    +0.002 A 
ATOM     13  C   LIG    1       17.642  51.194 185.283  0.00  0.00    +0.004 A 
ATOM     14  C   LIG    1       17.663  50.742 183.965  0.00  0.00    +0.047 A 
BRANCH   9  16
ATOM     15  C   LIG    1       18.397  50.108 181.074  0.00  0.00    +0.277 C 
ATOM     16  O   LIG    1       18.696  49.337 182.265  0.00  0.00    -0.493 OA
ENDBRANCH   9  16
ENDBRANCH   5  10
ENDBRANCH   3   7
ENDBRANCH   1   3
BRANCH   1  17
ATOM     17  C   LIG    1       22.898  46.049 185.296  0.00  0.00    +0.181 C 
BRANCH  17  18
ATOM     18  C   LIG    1       22.034  46.264 186.535  0.00  0.00    +0.231 C 
ATOM     19  N   LIG    1       22.416  45.601 187.675  0.00  0.00    -0.284 N 
ATOM     20  H   LIG    1       23.277  45.040 187.600  0.00  0.00    +0.155 HD
ATOM     21  O   LIG    1       21.038  46.962 186.520  0.00  0.00    -0.274 OA
BRANCH  19  22
ATOM     22  C   LIG    1       21.741  45.559 188.917  0.00  0.00    +0.041 A 
ATOM     23  C   LIG    1       22.295  44.753 189.961  0.00  0.00    +0.003 A 
ATOM     24  C   LIG    1       23.439  43.925 189.787  0.00  0.00    +0.010 A 
ATOM     25  C   LIG    1       23.950  43.198 190.836  0.00  0.00    +0.001 A 
ATOM     26  C   LIG    1       23.337  43.251 192.102  0.00  0.00    +0.001 A 
ATOM     27  C   LIG    1       22.218  44.025 192.296  0.00  0.00    +0.008 A 
ATOM     28  C   LIG    1       21.668  44.784 191.233  0.00  0.00    -0.016 A 
ATOM     29  C   LIG    1       20.503  45.573 191.419  0.00  0.00    +0.008 A 
ATOM     30  C   LIG    1       19.984  46.320 190.387  0.00  0.00    +0.002 A 
ATOM     31  C   LIG    1       20.607  46.321 189.126  0.00  0.00    +0.024 A 
ENDBRANCH  19  22
ENDBRANCH  17  18
ENDBRANCH   1  17
TORSDOF 7
ENDMDL
MODEL 4
REMARK VINA RESULT:      -8.3     25.715     28.259
REMARK  Name = ZINC000006086011
REMARK                            x       y       z     vdW  Elec       q    Type
REMARK                         _______ _______ _______ _____ _____    ______ ____
ROOT
ATOM      1  N   LIG    1       24.574  42.244 185.203  0.00  0.00    -0.286 NA
ATOM      2  C   LIG    1       25.352  41.667 186.321  0.00  0.00    +0.106 C 
ENDROOT
BRANCH   1   3
ATOM      3  C   LIG    1       25.419  42.530 183.977  0.00  0.00    +0.140 C 
ATOM      4  C   LIG    1       26.699  43.307 184.367  0.00  0.00    +0.034 C 
BRANCH   3   7
ATOM      5  N   LIG    1       23.791  42.546 182.153  0.00  0.00    -0.281 N 
ATOM      6  H   LIG    1       23.843  41.540 182.384  0.00  0.00    +0.155 HD
ATOM      7  C   LIG    1       24.580  43.328 182.956  0.00  0.00    +0.234 C 
ATOM      8  O   LIG    1       24.564  44.542 182.872  0.00  0.00    -0.274 OA
BRANCH   5  10
ATOM      9  C   LIG    1       23.017  42.224 179.908  0.00  0.00    +0.141 A 
ATOM     10  C   LIG    1       22.858  42.881 181.137  0.00  0.00    +0.076 A 
ATOM     11  C   LIG    1       21.833  43.814 181.303  0.00  0.00    +0.027 A 
ATOM     12  C   LIG    1       20.966  44.076 180.245  0.00  0.00    +0.002 A 
ATOM     13  C   LIG    1       21.120  43.417 179.025  0.00  0.00    +0.004 A 
ATOM     14  C   LIG    1       22.146  42.491 178.852  0.00  0.00    +0.047 A 
BRANCH   9  16
ATOM     15  C   LIG    1       25.185  41.432 178.894  0.00  0.00    +0.277 C 
ATOM     16  O   LIG    1       24.052  41.299 179.788  0.00  0.00    -0.493 OA
ENDBRANCH   9  16
ENDBRANCH   5  10
ENDBRANCH   3   7
ENDBRANCH   1   3
BRANCH   1  17
ATOM     17  C   LIG    1       23.738  43.421 185.657  0.00  0.00    +0.181 C 
BRANCH  17  18
ATOM     18  C   LIG    1       23.229  43.182 187.075  0.00  0.00    +0.231 C 
ATOM     19  N   LIG    1       23.532  44.143 188.009  0.00  0.00    -0.284 N 
ATOM     20  H   LIG    1       24.051  44.961 187.657  0.00  0.00    +0.155 HD
ATOM     21  O   LIG    1       22.610  42.182 187.384  0.00  0.00    -0.274 OA
BRANCH  19  22
ATOM     22  C   LIG    1       23.260  44.116 189.396  0.00  0.00    +0.041 A 
ATOM     23  C   LIG    1       22.138  44.860 189.880  0.00  0.00    +0.003 A 
ATOM     24  C   LIG    1       21.335  45.692 189.052  0.00  0.00    +0.010 A 
ATOM     25  C   LIG    1       20.246  46.357 189.563  0.00  0.00    +0.001 A 
ATOM     26  C   LIG    1       19.914  46.234 190.926  0.00  0.00    +0.001 A 
ATOM     27  C   LIG    1       20.683  45.454 191.756  0.00  0.00    +0.008 A 
ATOM     28  C   LIG    1       21.813  44.758 191.257  0.00  0.00    -0.016 A 
ATOM     29  C   LIG    1       22.622  43.964 192.110  0.00  0.00    +0.008 A 
ATOM     30  C   LIG    1       23.708  43.278 191.615  0.00  0.00    +0.002 A 
ATOM     31  C   LIG    1       24.031  43.347 190.248  0.00  0.00    +0.024 A 
ENDBRANCH  19  22
ENDBRANCH  17  18
ENDBRANCH   1  17
TORSDOF 7
ENDMDL
MODEL 5
REMARK VINA RESULT:      -8.2     29.624     31.956
REMARK  Name = ZINC000006086011
REMARK                            x       y       z     vdW  Elec       q    Type
REMARK                         _______ _______ _______ _____ _____    ______ ____
ROOT
ATOM      1  N   LIG    1       21.982  45.692 184.483  0.00  0.00    -0.286 NA
ATOM      2  C   LIG    1       22.820  44.474 184.473  0.00  0.00    +0.106 C 
ENDROOT
BRANCH   1   3
ATOM      3  C   LIG    1       21.738  46.256 183.096  0.00  0.00    +0.140 C 
ATOM      4  C   LIG    1       23.076  46.656 182.429  0.00  0.00    +0.034 C 
BRANCH   3   7
ATOM      5  N   LIG    1       21.303  48.622 182.666  0.00  0.00    -0.281 N 
ATOM      6  H   LIG    1       22.232  48.494 182.232  0.00  0.00    +0.155 HD
ATOM      7  C   LIG    1       20.790  47.469 183.200  0.00  0.00    +0.234 C 
ATOM      8  O   LIG    1       19.667  47.431 183.668  0.00  0.00    -0.274 OA
BRANCH   5  10
ATOM      9  C   LIG    1       21.248  50.907 183.388  0.00  0.00    +0.141 A 
ATOM     10  C   LIG    1       20.749  49.921 182.524  0.00  0.00    +0.076 A 
ATOM     11  C   LIG    1       19.754  50.243 181.599  0.00  0.00    +0.027 A 
ATOM     12  C   LIG    1       19.272  51.548 181.535  0.00  0.00    +0.002 A 
ATOM     13  C   LIG    1       19.774  52.529 182.390  0.00  0.00    +0.004 A 
ATOM     14  C   LIG    1       20.762  52.212 183.320  0.00  0.00    +0.047 A 
BRANCH   9  16
ATOM     15  C   LIG    1       23.066  51.471 185.042  0.00  0.00    +0.277 C 
ATOM     16  O   LIG    1       22.242  50.542 184.293  0.00  0.00    -0.493 OA
ENDBRANCH   9  16
ENDBRANCH   5  10
ENDBRANCH   3   7
ENDBRANCH   1   3
BRANCH   1  17
ATOM     17  C   LIG    1       22.496  46.713 185.475  0.00  0.00    +0.181 C 
BRANCH  17  18
ATOM     18  C   LIG    1       21.642  46.684 186.740  0.00  0.00    +0.231 C 
ATOM     19  N   LIG    1       22.157  46.001 187.815  0.00  0.00    -0.284 N 
ATOM     20  H   LIG    1       23.095  45.595 187.681  0.00  0.00    +0.155 HD
ATOM     21  O   LIG    1       20.548  47.210 186.797  0.00  0.00    -0.274 OA
BRANCH  19  22
ATOM     22  C   LIG    1       21.532  45.750 189.059  0.00  0.00    +0.041 A 
ATOM     23  C   LIG    1       22.191  44.881 189.983  0.00  0.00    +0.003 A 
ATOM     24  C   LIG    1       23.398  44.190 189.685  0.00  0.00    +0.010 A 
ATOM     25  C   LIG    1       24.008  43.395 190.625  0.00  0.00    +0.001 A 
ATOM     26  C   LIG    1       23.436  43.240 191.903  0.00  0.00    +0.001 A 
ATOM     27  C   LIG    1       22.259  43.878 192.215  0.00  0.00    +0.008 A 
ATOM     28  C   LIG    1       21.607  44.703 191.264  0.00  0.00    -0.016 A 
ATOM     29  C   LIG    1       20.383  45.352 191.572  0.00  0.00    +0.008 A 
ATOM     30  C   LIG    1       19.764  46.164 190.650  0.00  0.00    +0.002 A 
ATOM     31  C   LIG    1       20.341  46.373 189.384  0.00  0.00    +0.024 A 
ENDBRANCH  19  22
ENDBRANCH  17  18
ENDBRANCH   1  17
TORSDOF 7
ENDMDL
MODEL 6
REMARK VINA RESULT:      -8.1     28.581     30.531
REMARK  Name = ZINC000006086011
REMARK                            x       y       z     vdW  Elec       q    Type
REMARK                         _______ _______ _______ _____ _____    ______ ____
ROOT
ATOM      1  N   LIG    1       22.138  45.804 181.925  0.00  0.00    -0.286 NA
ATOM      2  C   LIG    1       21.172  45.817 180.805  0.00  0.00    +0.106 C 
ENDROOT
BRANCH   1   3
ATOM      3  C   LIG    1       23.181  44.712 181.797  0.00  0.00    +0.140 C 
ATOM      4  C   LIG    1       22.523  43.379 181.368  0.00  0.00    +0.034 C 
BRANCH   3   7
ATOM      5  N   LIG    1       23.608  43.401 183.815  0.00  0.00    -0.281 N 
ATOM      6  H   LIG    1       22.957  42.788 183.296  0.00  0.00    +0.155 HD
ATOM      7  C   LIG    1       23.920  44.554 183.143  0.00  0.00    +0.234 C 
ATOM      8  O   LIG    1       24.741  45.339 183.578  0.00  0.00    -0.274 OA
BRANCH   5  10
ATOM      9  C   LIG    1       25.208  42.027 184.954  0.00  0.00    +0.141 A 
ATOM     10  C   LIG    1       24.087  42.866 185.040  0.00  0.00    +0.076 A 
ATOM     11  C   LIG    1       23.502  43.125 186.281  0.00  0.00    +0.027 A 
ATOM     12  C   LIG    1       24.046  42.553 187.428  0.00  0.00    +0.002 A 
ATOM     13  C   LIG    1       25.164  41.723 187.343  0.00  0.00    +0.004 A 
ATOM     14  C   LIG    1       25.747  41.456 186.106  0.00  0.00    +0.047 A 
BRANCH   9  16
ATOM     15  C   LIG    1       27.009  42.363 183.223  0.00  0.00    +0.277 C 
ATOM     16  O   LIG    1       25.761  41.799 183.695  0.00  0.00    -0.493 OA
ENDBRANCH   9  16
ENDBRANCH   5  10
ENDBRANCH   3   7
ENDBRANCH   1   3
BRANCH   1  17
ATOM     17  C   LIG    1       21.436  45.825 183.265  0.00  0.00    +0.181 C 
BRANCH  17  18
ATOM     18  C   LIG    1       21.330  47.260 183.776  0.00  0.00    +0.231 C 
ATOM     19  N   LIG    1       20.096  47.856 183.684  0.00  0.00    -0.284 N 
ATOM     20  H   LIG    1       19.339  47.266 183.308  0.00  0.00    +0.155 HD
ATOM     21  O   LIG    1       22.288  47.865 184.216  0.00  0.00    -0.274 OA
BRANCH  19  22
ATOM     22  C   LIG    1       19.758  49.193 183.999  0.00  0.00    +0.041 A 
ATOM     23  C   LIG    1       19.097  49.449 185.240  0.00  0.00    +0.003 A 
ATOM     24  C   LIG    1       18.685  48.422 186.135  0.00  0.00    +0.010 A 
ATOM     25  C   LIG    1       18.085  48.727 187.333  0.00  0.00    +0.001 A 
ATOM     26  C   LIG    1       17.854  50.069 187.690  0.00  0.00    +0.001 A 
ATOM     27  C   LIG    1       18.221  51.084 186.838  0.00  0.00    +0.008 A 
ATOM     28  C   LIG    1       18.840  50.798 185.595  0.00  0.00    -0.016 A 
ATOM     29  C   LIG    1       19.206  51.838 184.702  0.00  0.00    +0.008 A 
ATOM     30  C   LIG    1       19.822  51.555 183.504  0.00  0.00    +0.002 A 
ATOM     31  C   LIG    1       20.107  50.225 183.147  0.00  0.00    +0.024 A 
ENDBRANCH  19  22
ENDBRANCH  17  18
ENDBRANCH   1  17
TORSDOF 7
ENDMDL
MODEL 7
REMARK VINA RESULT:      -8.0      1.331      2.086
REMARK  Name = ZINC000006086011
REMARK                            x       y       z     vdW  Elec       q    Type
REMARK                         _______ _______ _______ _____ _____    ______ ____
ROOT
ATOM      1  N   LIG    1       33.746  20.013 186.355  0.00  0.00    -0.286 NA
ATOM      2  C   LIG    1       33.344  20.907 185.247  0.00  0.00    +0.106 C 
ENDROOT
BRANCH   1   3
ATOM      3  C   LIG    1       35.222  20.108 186.690  0.00  0.00    +0.140 C 
ATOM      4  C   LIG    1       36.060  19.272 185.693  0.00  0.00    +0.034 C 
BRANCH   3   7
ATOM      5  N   LIG    1       36.290  18.553 188.242  0.00  0.00    -0.281 N 
ATOM      6  H   LIG    1       36.686  18.254 187.335  0.00  0.00    +0.155 HD
ATOM      7  C   LIG    1       35.447  19.627 188.139  0.00  0.00    +0.234 C 
ATOM      8  O   LIG    1       34.970  20.157 189.125  0.00  0.00    -0.274 OA
BRANCH   5  10
ATOM      9  C   LIG    1       38.002  18.295 189.901  0.00  0.00    +0.141 A 
ATOM     10  C   LIG    1       36.782  17.847 189.372  0.00  0.00    +0.076 A 
ATOM     11  C   LIG    1       36.129  16.758 189.950  0.00  0.00    +0.027 A 
ATOM     12  C   LIG    1       36.691  16.129 191.059  0.00  0.00    +0.002 A 
ATOM     13  C   LIG    1       37.901  16.579 191.588  0.00  0.00    +0.004 A 
ATOM     14  C   LIG    1       38.561  17.661 191.010  0.00  0.00    +0.047 A 
BRANCH   9  16
ATOM     15  C   LIG    1       38.625  20.736 189.822  0.00  0.00    +0.277 C 
ATOM     16  O   LIG    1       38.618  19.387 189.293  0.00  0.00    -0.493 OA
ENDBRANCH   9  16
ENDBRANCH   5  10
ENDBRANCH   3   7
ENDBRANCH   1   3
BRANCH   1  17
ATOM     17  C   LIG    1       33.260  18.598 186.131  0.00  0.00    +0.181 C 
BRANCH  17  18
ATOM     18  C   LIG    1       31.747  18.531 186.319  0.00  0.00    +0.231 C 
ATOM     19  N   LIG    1       31.087  17.531 185.647  0.00  0.00    -0.284 N 
ATOM     20  H   LIG    1       31.681  16.891 185.099  0.00  0.00    +0.155 HD
ATOM     21  O   LIG    1       31.140  19.334 187.002  0.00  0.00    -0.274 OA
BRANCH  19  22
ATOM     22  C   LIG    1       29.691  17.311 185.580  0.00  0.00    +0.041 A 
ATOM     23  C   LIG    1       29.098  17.121 184.293  0.00  0.00    +0.003 A 
ATOM     24  C   LIG    1       29.823  17.226 183.073  0.00  0.00    +0.010 A 
ATOM     25  C   LIG    1       29.209  16.997 181.865  0.00  0.00    +0.001 A 
ATOM     26  C   LIG    1       27.841  16.667 181.814  0.00  0.00    +0.001 A 
ATOM     27  C   LIG    1       27.109  16.578 182.974  0.00  0.00    +0.008 A 
ATOM     28  C   LIG    1       27.715  16.810 184.234  0.00  0.00    -0.016 A 
ATOM     29  C   LIG    1       26.963  16.737 185.435  0.00  0.00    +0.008 A 
ATOM     30  C   LIG    1       27.561  16.948 186.656  0.00  0.00    +0.002 A 
ATOM     31  C   LIG    1       28.937  17.232 186.736  0.00  0.00    +0.024 A 
ENDBRANCH  19  22
ENDBRANCH  17  18
ENDBRANCH   1  17
TORSDOF 7
ENDMDL
MODEL 8
REMARK VINA RESULT:      -8.0     28.693     30.693
REMARK  Name = ZINC000006086011
REMARK                            x       y       z     vdW  Elec       q    Type
REMARK                         _______ _______ _______ _____ _____    ______ ____
ROOT
ATOM      1  N   LIG    1       22.218  45.691 181.846  0.00  0.00    -0.286 NA
ATOM      2  C   LIG    1       21.375  44.849 180.970  0.00  0.00    +0.106 C 
ENDROOT
BRANCH   1   3
ATOM      3  C   LIG    1       23.638  45.175 181.979  0.00  0.00    +0.140 C 
ATOM      4  C   LIG    1       24.270  44.957 180.583  0.00  0.00    +0.034 C 
BRANCH   3   7
ATOM      5  N   LIG    1       24.372  43.913 183.939  0.00  0.00    -0.281 N 
ATOM      6  H   LIG    1       24.792  44.842 184.114  0.00  0.00    +0.155 HD
ATOM      7  C   LIG    1       23.628  43.862 182.790  0.00  0.00    +0.234 C 
ATOM      8  O   LIG    1       22.994  42.868 182.489  0.00  0.00    -0.274 OA
BRANCH   5  10
ATOM      9  C   LIG    1       23.782  43.080 186.108  0.00  0.00    +0.141 A 
ATOM     10  C   LIG    1       24.586  42.956 184.965  0.00  0.00    +0.076 A 
ATOM     11  C   LIG    1       25.540  41.939 184.890  0.00  0.00    +0.027 A 
ATOM     12  C   LIG    1       25.676  41.046 185.951  0.00  0.00    +0.002 A 
ATOM     13  C   LIG    1       24.872  41.167 187.084  0.00  0.00    +0.004 A 
ATOM     14  C   LIG    1       23.924  42.184 187.167  0.00  0.00    +0.047 A 
BRANCH   9  16
ATOM     15  C   LIG    1       22.635  45.011 187.254  0.00  0.00    +0.277 C 
ATOM     16  O   LIG    1       22.842  44.109 186.139  0.00  0.00    -0.493 OA
ENDBRANCH   9  16
ENDBRANCH   5  10
ENDBRANCH   3   7
ENDBRANCH   1   3
BRANCH   1  17
ATOM     17  C   LIG    1       21.542  45.966 183.172  0.00  0.00    +0.181 C 
BRANCH  17  18
ATOM     18  C   LIG    1       20.820  47.310 183.119  0.00  0.00    +0.231 C 
ATOM     19  N   LIG    1       21.141  48.220 184.096  0.00  0.00    -0.284 N 
ATOM     20  H   LIG    1       21.870  47.925 184.762  0.00  0.00    +0.155 HD
ATOM     21  O   LIG    1       19.980  47.564 182.277  0.00  0.00    -0.274 OA
BRANCH  19  22
ATOM     22  C   LIG    1       20.555  49.488 184.321  0.00  0.00    +0.041 A 
ATOM     23  C   LIG    1       19.571  49.603 185.353  0.00  0.00    +0.003 A 
ATOM     24  C   LIG    1       19.090  48.495 186.105  0.00  0.00    +0.010 A 
ATOM     25  C   LIG    1       18.170  48.669 187.110  0.00  0.00    +0.001 A 
ATOM     26  C   LIG    1       17.674  49.954 187.404  0.00  0.00    +0.001 A 
ATOM     27  C   LIG    1       18.103  51.042 186.682  0.00  0.00    +0.008 A 
ATOM     28  C   LIG    1       19.051  50.892 185.638  0.00  0.00    -0.016 A 
ATOM     29  C   LIG    1       19.487  52.007 184.876  0.00  0.00    +0.008 A 
ATOM     30  C   LIG    1       20.419  51.856 183.876  0.00  0.00    +0.002 A 
ATOM     31  C   LIG    1       20.965  50.590 183.595  0.00  0.00    +0.024 A 
ENDBRANCH  19  22
ENDBRANCH  17  18
ENDBRANCH   1  17
TORSDOF 7
ENDMDL
MODEL 9
REMARK VINA RESULT:      -7.8      1.484      3.112
REMARK  Name = ZINC000006086011
REMARK                            x       y       z     vdW  Elec       q    Type
REMARK                         _______ _______ _______ _____ _____    ______ ____
ROOT
ATOM      1  N   LIG    1       33.268  18.562 186.556  0.00  0.00    -0.286 NA
ATOM      2  C   LIG    1       31.922  19.068 186.900  0.00  0.00    +0.106 C 
ENDROOT
BRANCH   1   3
ATOM      3  C   LIG    1       34.383  19.489 187.000  0.00  0.00    +0.140 C 
ATOM      4  C   LIG    1       34.834  20.396 185.830  0.00  0.00    +0.034 C 
BRANCH   3   7
ATOM      5  N   LIG    1       35.607  18.558 188.899  0.00  0.00    -0.281 N 
ATOM      6  H   LIG    1       34.815  19.029 189.367  0.00  0.00    +0.155 HD
ATOM      7  C   LIG    1       35.563  18.649 187.533  0.00  0.00    +0.234 C 
ATOM      8  O   LIG    1       36.372  18.071 186.831  0.00  0.00    -0.274 OA
BRANCH   5  10
ATOM      9  C   LIG    1       37.433  18.639 190.450  0.00  0.00    +0.141 A 
ATOM     10  C   LIG    1       36.487  17.860 189.767  0.00  0.00    +0.076 A 
ATOM     11  C   LIG    1       36.457  16.476 189.953  0.00  0.00    +0.027 A 
ATOM     12  C   LIG    1       37.363  15.881 190.828  0.00  0.00    +0.002 A 
ATOM     13  C   LIG    1       38.299  16.658 191.512  0.00  0.00    +0.004 A 
ATOM     14  C   LIG    1       38.338  18.038 191.324  0.00  0.00    +0.047 A 
BRANCH   9  16
ATOM     15  C   LIG    1       37.356  21.018 191.280  0.00  0.00    +0.277 C 
ATOM     16  O   LIG    1       37.425  20.015 190.236  0.00  0.00    -0.493 OA
ENDBRANCH   9  16
ENDBRANCH   5  10
ENDBRANCH   3   7
ENDBRANCH   1   3
BRANCH   1  17
ATOM     17  C   LIG    1       33.355  18.155 185.101  0.00  0.00    +0.181 C 
BRANCH  17  18
ATOM     18  C   LIG    1       31.991  18.311 184.435  0.00  0.00    +0.231 C 
ATOM     19  N   LIG    1       31.187  17.198 184.407  0.00  0.00    -0.284 N 
ATOM     20  H   LIG    1       31.567  16.360 184.872  0.00  0.00    +0.155 HD
ATOM     21  O   LIG    1       31.634  19.356 183.924  0.00  0.00    -0.274 OA
BRANCH  19  22
ATOM     22  C   LIG    1       29.930  17.056 183.775  0.00  0.00    +0.041 A 
ATOM     23  C   LIG    1       28.755  17.113 184.588  0.00  0.00    +0.003 A 
ATOM     24  C   LIG    1       28.788  17.220 186.006  0.00  0.00    +0.010 A 
ATOM     25  C   LIG    1       27.626  17.308 186.735  0.00  0.00    +0.001 A 
ATOM     26  C   LIG    1       26.377  17.280 186.087  0.00  0.00    +0.001 A 
ATOM     27  C   LIG    1       26.311  17.156 184.719  0.00  0.00    +0.008 A 
ATOM     28  C   LIG    1       27.493  17.062 183.942  0.00  0.00    -0.016 A 
ATOM     29  C   LIG    1       27.434  16.917 182.532  0.00  0.00    +0.008 A 
ATOM     30  C   LIG    1       28.586  16.843 181.782  0.00  0.00    +0.002 A 
ATOM     31  C   LIG    1       29.846  16.917 182.402  0.00  0.00    +0.024 A 
ENDBRANCH  19  22
ENDBRANCH  17  18
ENDBRANCH   1  17
TORSDOF 7
ENDMDL
