REMARK VINA RESULT:      -6.1     26.909     29.726
REMARK  Name = ZINC000000623135
REMARK                            x       y       z     vdW  Elec       q    Type
REMARK                         _______ _______ _______ _____ _____    ______ ____
ROOT
ATOM      1  N   LIG    1       38.625  18.770 187.964  0.00  0.00    -0.299 N 
ATOM      2  H   LIG    1       39.314  19.026 187.248  0.00  0.00    +0.150 HD
ENDROOT
BRANCH   1   5
ATOM      3  C   LIG    1       37.433  16.014 188.369  0.00  0.00    +0.409 C 
ATOM      4  N   LIG    1       38.702  16.479 188.168  0.00  0.00    -0.212 N 
ATOM      5  C   LIG    1       39.116  17.724 188.805  0.00  0.00    +0.235 C 
ATOM      6  S   LIG    1       40.938  17.829 188.535  0.00  0.00    -0.086 S 
ATOM      7  C   LIG    1       40.881  16.463 187.470  0.00  0.00    +0.006 C 
ATOM      8  C   LIG    1       41.932  15.827 186.615  0.00  0.00    +0.044 C 
ATOM      9  C   LIG    1       41.210  14.484 186.253  0.00  0.00    +0.011 C 
ATOM     10  C   LIG    1       39.672  14.692 186.451  0.00  0.00    +0.052 C 
ATOM     11  C   LIG    1       39.706  15.868 187.374  0.00  0.00    +0.029 C 
ATOM     12  O   LIG    1       36.985  15.030 187.790  0.00  0.00    -0.226 OA
BRANCH   3  13
ATOM     13  O   LIG    1       36.699  16.703 189.274  0.00  0.00    -0.450 OA
BRANCH  13  15
ATOM     14  C   LIG    1       36.937  16.643 191.625  0.00  0.00    +0.048 C 
ATOM     15  C   LIG    1       36.140  16.075 190.451  0.00  0.00    +0.230 C 
ENDBRANCH  13  15
ENDBRANCH   3  13
ENDBRANCH   1   5
BRANCH   1  16
ATOM     16  C   LIG    1       38.067  19.853 188.577  0.00  0.00    +0.136 C 
ATOM     17  S   LIG    1       38.908  21.220 189.054  0.00  0.00    -0.018 S 
BRANCH  16  18
ATOM     18  N   LIG    1       36.699  19.743 188.762  0.00  0.00    -0.297 N 
ATOM     19  H   LIG    1       36.399  19.812 189.743  0.00  0.00    +0.154 HD
BRANCH  18  20
ATOM     20  C   LIG    1       35.707  19.805 187.761  0.00  0.00    +0.033 A 
ATOM     21  C   LIG    1       34.674  18.863 187.724  0.00  0.00    +0.027 A 
ATOM     22  C   LIG    1       33.714  18.940 186.722  0.00  0.00    +0.047 A 
ATOM     23  C   LIG    1       33.785  19.959 185.773  0.00  0.00    +0.120 A 
ATOM     24  C   LIG    1       34.810  20.908 185.817  0.00  0.00    +0.047 A 
ATOM     25  C   LIG    1       35.774  20.831 186.817  0.00  0.00    +0.027 A 
BRANCH  23  26
ATOM     26  O   LIG    1       32.805  19.981 184.801  0.00  0.00    -0.495 OA
ATOM     27  C   LIG    1       31.813  18.949 184.596  0.00  0.00    +0.277 C 
ENDBRANCH  23  26
ENDBRANCH  18  20
ENDBRANCH  16  18
ENDBRANCH   1  16
TORSDOF 7
