REMARK VINA RESULT:      -8.6      1.484      2.142
REMARK  Name = ZINC000049421769
REMARK                            x       y       z     vdW  Elec       q    Type
REMARK                         _______ _______ _______ _____ _____    ______ ____
ROOT
ATOM      1  C   LIG    1       27.476  42.155 182.636  0.00  0.00    +0.088 C 
ATOM      2  C   LIG    1       26.237  43.017 182.541  0.00  0.00    +0.135 A 
ATOM      3  N   LIG    1       25.237  43.123 183.446  0.00  0.00    -0.276 N 
ATOM      4  C   LIG    1       24.989  42.514 184.729  0.00  0.00    +0.075 A 
ATOM      5  C   LIG    1       25.829  41.548 185.305  0.00  0.00    +0.028 A 
ATOM      6  C   LIG    1       25.517  41.032 186.554  0.00  0.00    +0.002 A 
ATOM      7  C   LIG    1       24.376  41.470 187.230  0.00  0.00    +0.002 A 
ATOM      8  C   LIG    1       23.542  42.418 186.656  0.00  0.00    +0.030 A 
ATOM      9  C   LIG    1       23.827  42.950 185.393  0.00  0.00    +0.089 A 
ATOM     10  N   LIG    1       22.948  43.882 184.847  0.00  0.00    -0.235 NA
ATOM     11  C   LIG    1       23.205  44.387 183.684  0.00  0.00    +0.143 A 
ATOM     12  C   LIG    1       24.375  44.017 182.930  0.00  0.00    +0.194 A 
ATOM     13  N   LIG    1       24.809  44.432 181.766  0.00  0.00    -0.127 NA
ATOM     14  N   LIG    1       25.982  43.795 181.535  0.00  0.00    -0.134 NA
ENDROOT
BRANCH  11  15
ATOM     15  S   LIG    1       22.101  45.559 183.018  0.00  0.00    -0.093 S 
BRANCH  15  16
ATOM     16  C   LIG    1       23.088  47.112 183.001  0.00  0.00    +0.172 C 
BRANCH  16  17
ATOM     17  C   LIG    1       22.083  48.246 183.050  0.00  0.00    +0.227 C 
ATOM     18  N   LIG    1       21.658  48.649 184.289  0.00  0.00    -0.284 N 
ATOM     19  H   LIG    1       21.964  48.078 185.089  0.00  0.00    +0.155 HD
ATOM     20  O   LIG    1       21.641  48.772 182.050  0.00  0.00    -0.275 OA
BRANCH  18  21
ATOM     21  C   LIG    1       20.683  49.641 184.539  0.00  0.00    +0.039 A 
ATOM     22  C   LIG    1       19.367  49.221 184.791  0.00  0.00    -0.029 A 
ATOM     23  C   LIG    1       18.972  47.754 184.754  0.00  0.00    +0.045 C 
ATOM     24  C   LIG    1       18.399  50.186 185.058  0.00  0.00    +0.005 A 
ATOM     25  C   LIG    1       18.733  51.537 185.076  0.00  0.00    +0.001 A 
ATOM     26  C   LIG    1       20.043  51.940 184.828  0.00  0.00    +0.005 A 
ATOM     27  C   LIG    1       21.035  51.000 184.562  0.00  0.00    -0.029 A 
ATOM     28  C   LIG    1       22.454  51.479 184.305  0.00  0.00    +0.045 C 
ENDBRANCH  18  21
ENDBRANCH  16  17
ENDBRANCH  15  16
ENDBRANCH  11  15
TORSDOF 4
