MODEL 1
REMARK VINA RESULT:      -8.7      0.000      0.000
REMARK  Name = ZINC000049399659
REMARK                            x       y       z     vdW  Elec       q    Type
REMARK                         _______ _______ _______ _____ _____    ______ ____
ROOT
ATOM      1  C   LIG    1       22.876  46.567 184.773  0.00  0.00    +0.173 C 
ENDROOT
BRANCH   1   4
ATOM      2  N   LIG    1       21.437  48.482 185.333  0.00  0.00    -0.282 N 
ATOM      3  H   LIG    1       22.297  48.823 185.787  0.00  0.00    +0.155 HD
ATOM      4  C   LIG    1       21.509  47.215 184.809  0.00  0.00    +0.228 C 
ATOM      5  O   LIG    1       20.517  46.644 184.405  0.00  0.00    -0.275 OA
BRANCH   2   7
ATOM      6  C   LIG    1       20.256  50.408 184.513  0.00  0.00    +0.141 A 
ATOM      7  C   LIG    1       20.327  49.367 185.453  0.00  0.00    +0.077 A 
ATOM      8  C   LIG    1       19.332  49.229 186.423  0.00  0.00    +0.047 A 
ATOM      9  C   LIG    1       18.281  50.146 186.456  0.00  0.00    +0.043 A 
ATOM     10 CL   LIG    1       17.041  49.992 187.654  0.00  0.00    -0.083 Cl
ATOM     11  C   LIG    1       18.215  51.190 185.528  0.00  0.00    +0.024 A 
ATOM     12  C   LIG    1       19.202  51.321 184.554  0.00  0.00    +0.049 A 
BRANCH   6  14
ATOM     13  C   LIG    1       21.036  50.712 182.134  0.00  0.00    +0.277 C 
ATOM     14  O   LIG    1       21.260  50.496 183.547  0.00  0.00    -0.493 OA
ENDBRANCH   6  14
ENDBRANCH   2   7
ENDBRANCH   1   4
BRANCH   1  15
ATOM     15  S   LIG    1       22.631  44.876 184.108  0.00  0.00    -0.077 S 
BRANCH  15  16
ATOM     16  C   LIG    1       23.162  43.874 185.422  0.00  0.00    +0.190 A 
ATOM     17  N   LIG    1       22.776  44.209 186.653  0.00  0.00    -0.207 NA
ATOM     18  C   LIG    1       23.176  43.448 187.658  0.00  0.00    +0.126 A 
ATOM     19  C   LIG    1       23.972  42.329 187.440  0.00  0.00    +0.063 A 
ATOM     20  C   LIG    1       24.344  42.040 186.144  0.00  0.00    +0.117 A 
ATOM     21  N   LIG    1       23.942  42.812 185.143  0.00  0.00    -0.230 NA
BRANCH  18  22
ATOM     22  N   LIG    1       22.778  43.783 188.948  0.00  0.00    -0.315 N 
ATOM     23  C   LIG    1       23.849  43.854 189.960  0.00  0.00    +0.106 C 
ATOM     24  C   LIG    1       23.176  43.560 191.314  0.00  0.00    +0.019 C 
ATOM     25  C   LIG    1       22.105  44.638 191.555  0.00  0.00    +0.003 C 
ATOM     26  C   LIG    1       21.051  44.582 190.437  0.00  0.00    +0.019 C 
ATOM     27  C   LIG    1       21.755  44.844 189.092  0.00  0.00    +0.106 C 
ENDBRANCH  18  22
ENDBRANCH  15  16
ENDBRANCH   1  15
TORSDOF 6
ENDMDL
MODEL 2
REMARK VINA RESULT:      -8.4      3.696      6.432
REMARK  Name = ZINC000049399659
REMARK                            x       y       z     vdW  Elec       q    Type
REMARK                         _______ _______ _______ _____ _____    ______ ____
ROOT
ATOM      1  C   LIG    1       21.302  46.092 183.885  0.00  0.00    +0.173 C 
ENDROOT
BRANCH   1   4
ATOM      2  N   LIG    1       23.269  44.748 184.495  0.00  0.00    -0.282 N 
ATOM      3  H   LIG    1       23.593  45.645 184.887  0.00  0.00    +0.155 HD
ATOM      4  C   LIG    1       22.084  44.798 183.806  0.00  0.00    +0.228 C 
ATOM      5  O   LIG    1       21.692  43.849 183.159  0.00  0.00    -0.275 OA
BRANCH   2   7
ATOM      6  C   LIG    1       25.180  43.544 183.673  0.00  0.00    +0.141 A 
ATOM      7  C   LIG    1       24.192  43.676 184.662  0.00  0.00    +0.077 A 
ATOM      8  C   LIG    1       24.165  42.796 185.747  0.00  0.00    +0.047 A 
ATOM      9  C   LIG    1       25.117  41.779 185.823  0.00  0.00    +0.043 A 
ATOM     10 CL   LIG    1       25.095  40.678 187.158  0.00  0.00    -0.083 Cl
ATOM     11  C   LIG    1       26.094  41.640 184.833  0.00  0.00    +0.024 A 
ATOM     12  C   LIG    1       26.128  42.524 183.757  0.00  0.00    +0.049 A 
BRANCH   6  14
ATOM     13  C   LIG    1       26.104  45.568 182.483  0.00  0.00    +0.277 C 
ATOM     14  O   LIG    1       25.185  44.459 182.617  0.00  0.00    -0.493 OA
ENDBRANCH   6  14
ENDBRANCH   2   7
ENDBRANCH   1   4
BRANCH   1  15
ATOM     15  S   LIG    1       22.253  47.206 184.986  0.00  0.00    -0.077 S 
BRANCH  15  16
ATOM     16  C   LIG    1       21.420  47.040 186.500  0.00  0.00    +0.190 A 
ATOM     17  N   LIG    1       21.944  46.218 187.410  0.00  0.00    -0.207 NA
ATOM     18  C   LIG    1       21.315  46.090 188.566  0.00  0.00    +0.126 A 
ATOM     19  C   LIG    1       20.144  46.793 188.829  0.00  0.00    +0.063 A 
ATOM     20  C   LIG    1       19.650  47.621 187.845  0.00  0.00    +0.117 A 
ATOM     21  N   LIG    1       20.284  47.740 186.687  0.00  0.00    -0.230 NA
BRANCH  18  22
ATOM     22  N   LIG    1       21.851  45.238 189.526  0.00  0.00    -0.315 N 
ATOM     23  C   LIG    1       20.903  44.697 190.518  0.00  0.00    +0.106 C 
ATOM     24  C   LIG    1       21.732  44.392 191.779  0.00  0.00    +0.019 C 
ATOM     25  C   LIG    1       22.802  43.353 191.403  0.00  0.00    +0.003 C 
ATOM     26  C   LIG    1       23.722  43.927 190.312  0.00  0.00    +0.019 C 
ATOM     27  C   LIG    1       22.863  44.255 189.076  0.00  0.00    +0.106 C 
ENDBRANCH  18  22
ENDBRANCH  15  16
ENDBRANCH   1  15
TORSDOF 6
ENDMDL
MODEL 3
REMARK VINA RESULT:      -8.2     30.155     31.718
REMARK  Name = ZINC000049399659
REMARK                            x       y       z     vdW  Elec       q    Type
REMARK                         _______ _______ _______ _____ _____    ______ ____
ROOT
ATOM      1  C   LIG    1       25.912  15.244 189.310  0.00  0.00    +0.173 C 
ENDROOT
BRANCH   1   4
ATOM      2  N   LIG    1       25.898  15.789 191.708  0.00  0.00    -0.282 N 
ATOM      3  H   LIG    1       26.323  16.667 191.374  0.00  0.00    +0.155 HD
ATOM      4  C   LIG    1       25.693  14.829 190.749  0.00  0.00    +0.228 C 
ATOM      5  O   LIG    1       25.361  13.701 191.049  0.00  0.00    -0.275 OA
BRANCH   2   7
ATOM      6  C   LIG    1       26.879  15.916 193.898  0.00  0.00    +0.141 A 
ATOM      7  C   LIG    1       25.724  15.731 193.121  0.00  0.00    +0.077 A 
ATOM      8  C   LIG    1       24.488  15.526 193.739  0.00  0.00    +0.047 A 
ATOM      9  C   LIG    1       24.421  15.490 195.132  0.00  0.00    +0.043 A 
ATOM     10 CL   LIG    1       22.898  15.233 195.914  0.00  0.00    -0.083 Cl
ATOM     11  C   LIG    1       25.572  15.663 195.907  0.00  0.00    +0.024 A 
ATOM     12  C   LIG    1       26.803  15.878 195.291  0.00  0.00    +0.049 A 
BRANCH   6  14
ATOM     13  C   LIG    1       29.387  16.185 193.881  0.00  0.00    +0.277 C 
ATOM     14  O   LIG    1       28.091  16.140 193.240  0.00  0.00    -0.493 OA
ENDBRANCH   6  14
ENDBRANCH   2   7
ENDBRANCH   1   4
BRANCH   1  15
ATOM     15  S   LIG    1       27.154  16.593 189.342  0.00  0.00    -0.077 S 
BRANCH  15  16
ATOM     16  C   LIG    1       27.553  16.777 187.663  0.00  0.00    +0.190 A 
ATOM     17  N   LIG    1       28.780  17.204 187.360  0.00  0.00    -0.207 NA
ATOM     18  C   LIG    1       29.091  17.343 186.083  0.00  0.00    +0.126 A 
ATOM     19  C   LIG    1       28.170  17.051 185.082  0.00  0.00    +0.063 A 
ATOM     20  C   LIG    1       26.917  16.621 185.461  0.00  0.00    +0.117 A 
ATOM     21  N   LIG    1       26.612  16.488 186.744  0.00  0.00    -0.230 NA
BRANCH  18  22
ATOM     22  N   LIG    1       30.367  17.786 185.752  0.00  0.00    -0.315 N 
ATOM     23  C   LIG    1       30.630  17.999 184.316  0.00  0.00    +0.106 C 
ATOM     24  C   LIG    1       32.146  17.810 184.126  0.00  0.00    +0.019 C 
ATOM     25  C   LIG    1       32.867  18.861 184.989  0.00  0.00    +0.003 C 
ATOM     26  C   LIG    1       32.506  18.652 186.469  0.00  0.00    +0.019 C 
ATOM     27  C   LIG    1       30.981  18.811 186.625  0.00  0.00    +0.106 C 
ENDBRANCH  18  22
ENDBRANCH  15  16
ENDBRANCH   1  15
TORSDOF 6
ENDMDL
MODEL 4
REMARK VINA RESULT:      -7.9     29.969     30.962
REMARK  Name = ZINC000049399659
REMARK                            x       y       z     vdW  Elec       q    Type
REMARK                         _______ _______ _______ _____ _____    ______ ____
ROOT
ATOM      1  C   LIG    1       26.311  17.254 187.668  0.00  0.00    +0.173 C 
ENDROOT
BRANCH   1   4
ATOM      2  N   LIG    1       27.839  16.828 185.787  0.00  0.00    -0.282 N 
ATOM      3  H   LIG    1       28.417  16.404 186.529  0.00  0.00    +0.155 HD
ATOM      4  C   LIG    1       26.692  17.448 186.216  0.00  0.00    +0.228 C 
ATOM      5  O   LIG    1       26.024  18.125 185.462  0.00  0.00    -0.275 OA
BRANCH   2   7
ATOM      6  C   LIG    1       29.723  17.296 184.372  0.00  0.00    +0.141 A 
ATOM      7  C   LIG    1       28.426  16.771 184.491  0.00  0.00    +0.077 A 
ATOM      8  C   LIG    1       27.790  16.214 183.379  0.00  0.00    +0.047 A 
ATOM      9  C   LIG    1       28.452  16.201 182.151  0.00  0.00    +0.043 A 
ATOM     10 CL   LIG    1       27.678  15.517 180.762  0.00  0.00    -0.083 Cl
ATOM     11  C   LIG    1       29.740  16.733 182.029  0.00  0.00    +0.024 A 
ATOM     12  C   LIG    1       30.378  17.280 183.140  0.00  0.00    +0.049 A 
BRANCH   6  14
ATOM     13  C   LIG    1       31.523  18.644 185.515  0.00  0.00    +0.277 C 
ATOM     14  O   LIG    1       30.331  17.824 185.513  0.00  0.00    -0.493 OA
ENDBRANCH   6  14
ENDBRANCH   2   7
ENDBRANCH   1   4
BRANCH   1  15
ATOM     15  S   LIG    1       27.864  17.387 188.633  0.00  0.00    -0.077 S 
BRANCH  15  16
ATOM     16  C   LIG    1       27.425  16.673 190.153  0.00  0.00    +0.190 A 
ATOM     17  N   LIG    1       28.156  16.991 191.222  0.00  0.00    -0.207 NA
ATOM     18  C   LIG    1       27.824  16.453 192.383  0.00  0.00    +0.126 A 
ATOM     19  C   LIG    1       26.743  15.583 192.490  0.00  0.00    +0.063 A 
ATOM     20  C   LIG    1       26.033  15.289 191.347  0.00  0.00    +0.117 A 
ATOM     21  N   LIG    1       26.375  15.829 190.186  0.00  0.00    -0.230 NA
BRANCH  18  22
ATOM     22  N   LIG    1       28.575  16.777 193.508  0.00  0.00    -0.315 N 
ATOM     23  C   LIG    1       29.805  15.990 193.718  0.00  0.00    +0.106 C 
ATOM     24  C   LIG    1       30.074  16.014 195.234  0.00  0.00    +0.019 C 
ATOM     25  C   LIG    1       30.269  17.481 195.657  0.00  0.00    +0.003 C 
ATOM     26  C   LIG    1       28.993  18.283 195.350  0.00  0.00    +0.019 C 
ATOM     27  C   LIG    1       28.728  18.213 193.834  0.00  0.00    +0.106 C 
ENDBRANCH  18  22
ENDBRANCH  15  16
ENDBRANCH   1  15
TORSDOF 6
ENDMDL
MODEL 5
REMARK VINA RESULT:      -7.7     29.640     30.889
REMARK  Name = ZINC000049399659
REMARK                            x       y       z     vdW  Elec       q    Type
REMARK                         _______ _______ _______ _____ _____    ______ ____
ROOT
ATOM      1  C   LIG    1       34.074  20.432 185.821  0.00  0.00    +0.173 C 
ENDROOT
BRANCH   1   4
ATOM      2  N   LIG    1       36.020  20.751 187.292  0.00  0.00    -0.282 N 
ATOM      3  H   LIG    1       35.299  21.092 187.947  0.00  0.00    +0.155 HD
ATOM      4  C   LIG    1       35.573  20.442 186.031  0.00  0.00    +0.228 C 
ATOM      5  O   LIG    1       36.350  20.197 185.132  0.00  0.00    -0.275 OA
BRANCH   2   7
ATOM      6  C   LIG    1       37.458  20.796 189.216  0.00  0.00    +0.141 A 
ATOM      7  C   LIG    1       37.344  20.790 187.816  0.00  0.00    +0.077 A 
ATOM      8  C   LIG    1       38.490  20.800 187.018  0.00  0.00    +0.047 A 
ATOM      9  C   LIG    1       39.744  20.833 187.628  0.00  0.00    +0.043 A 
ATOM     10 CL   LIG    1       41.175  20.849 186.655  0.00  0.00    -0.083 Cl
ATOM     11  C   LIG    1       39.860  20.850 189.022  0.00  0.00    +0.024 A 
ATOM     12  C   LIG    1       38.717  20.830 189.818  0.00  0.00    +0.049 A 
BRANCH   6  14
ATOM     13  C   LIG    1       36.040  21.568 191.153  0.00  0.00    +0.277 C 
ATOM     14  O   LIG    1       36.288  20.764 189.976  0.00  0.00    -0.493 OA
ENDBRANCH   6  14
ENDBRANCH   2   7
ENDBRANCH   1   4
BRANCH   1  15
ATOM     15  S   LIG    1       33.468  18.834 186.484  0.00  0.00    -0.077 S 
BRANCH  15  16
ATOM     16  C   LIG    1       32.402  18.286 185.229  0.00  0.00    +0.190 A 
ATOM     17  N   LIG    1       31.138  18.017 185.561  0.00  0.00    -0.207 NA
ATOM     18  C   LIG    1       30.320  17.602 184.608  0.00  0.00    +0.126 A 
ATOM     19  C   LIG    1       30.761  17.452 183.298  0.00  0.00    +0.063 A 
ATOM     20  C   LIG    1       32.080  17.738 183.020  0.00  0.00    +0.117 A 
ATOM     21  N   LIG    1       32.894  18.150 183.982  0.00  0.00    -0.230 NA
BRANCH  18  22
ATOM     22  N   LIG    1       28.999  17.322 184.940  0.00  0.00    -0.315 N 
ATOM     23  C   LIG    1       28.251  16.488 183.979  0.00  0.00    +0.106 C 
ATOM     24  C   LIG    1       26.767  16.860 184.157  0.00  0.00    +0.019 C 
ATOM     25  C   LIG    1       26.368  16.538 185.608  0.00  0.00    +0.003 C 
ATOM     26  C   LIG    1       27.224  17.370 186.578  0.00  0.00    +0.019 C 
ATOM     27  C   LIG    1       28.704  17.004 186.355  0.00  0.00    +0.106 C 
ENDBRANCH  18  22
ENDBRANCH  15  16
ENDBRANCH   1  15
TORSDOF 6
ENDMDL
MODEL 6
REMARK VINA RESULT:      -7.6      2.698      3.694
REMARK  Name = ZINC000049399659
REMARK                            x       y       z     vdW  Elec       q    Type
REMARK                         _______ _______ _______ _____ _____    ______ ____
ROOT
ATOM      1  C   LIG    1       21.129  46.353 183.736  0.00  0.00    +0.173 C 
ENDROOT
BRANCH   1   4
ATOM      2  N   LIG    1       20.396  48.680 183.423  0.00  0.00    -0.282 N 
ATOM      3  H   LIG    1       20.226  48.622 184.438  0.00  0.00    +0.155 HD
ATOM      4  C   LIG    1       20.791  47.511 182.822  0.00  0.00    +0.228 C 
ATOM      5  O   LIG    1       20.854  47.415 181.614  0.00  0.00    -0.275 OA
BRANCH   2   7
ATOM      6  C   LIG    1       21.035  50.955 182.989  0.00  0.00    +0.141 A 
ATOM      7  C   LIG    1       20.070  49.944 182.852  0.00  0.00    +0.077 A 
ATOM      8  C   LIG    1       18.879  50.198 182.170  0.00  0.00    +0.047 A 
ATOM      9  C   LIG    1       18.654  51.471 181.642  0.00  0.00    +0.043 A 
ATOM     10 CL   LIG    1       17.182  51.804 180.795  0.00  0.00    -0.083 Cl
ATOM     11  C   LIG    1       19.609  52.482 181.786  0.00  0.00    +0.024 A 
ATOM     12  C   LIG    1       20.802  52.225 182.459  0.00  0.00    +0.049 A 
BRANCH   6  14
ATOM     13  C   LIG    1       22.608  51.190 184.947  0.00  0.00    +0.277 C 
ATOM     14  O   LIG    1       22.222  50.653 183.660  0.00  0.00    -0.493 OA
ENDBRANCH   6  14
ENDBRANCH   2   7
ENDBRANCH   1   4
BRANCH   1  15
ATOM     15  S   LIG    1       22.369  46.981 184.931  0.00  0.00    -0.077 S 
BRANCH  15  16
ATOM     16  C   LIG    1       21.507  46.920 186.436  0.00  0.00    +0.190 A 
ATOM     17  N   LIG    1       22.002  46.148 187.405  0.00  0.00    -0.207 NA
ATOM     18  C   LIG    1       21.351  46.100 188.554  0.00  0.00    +0.126 A 
ATOM     19  C   LIG    1       20.185  46.832 188.751  0.00  0.00    +0.063 A 
ATOM     20  C   LIG    1       19.720  47.604 187.709  0.00  0.00    +0.117 A 
ATOM     21  N   LIG    1       20.377  47.644 186.558  0.00  0.00    -0.230 NA
BRANCH  18  22
ATOM     22  N   LIG    1       21.857  45.302 189.574  0.00  0.00    -0.315 N 
ATOM     23  C   LIG    1       20.981  45.109 190.745  0.00  0.00    +0.106 C 
ATOM     24  C   LIG    1       21.915  44.825 191.936  0.00  0.00    +0.019 C 
ATOM     25  C   LIG    1       22.714  43.549 191.618  0.00  0.00    +0.003 C 
ATOM     26  C   LIG    1       23.554  43.766 190.348  0.00  0.00    +0.019 C 
ATOM     27  C   LIG    1       22.599  44.083 189.182  0.00  0.00    +0.106 C 
ENDBRANCH  18  22
ENDBRANCH  15  16
ENDBRANCH   1  15
TORSDOF 6
ENDMDL
MODEL 7
REMARK VINA RESULT:      -7.5      3.650      8.261
REMARK  Name = ZINC000049399659
REMARK                            x       y       z     vdW  Elec       q    Type
REMARK                         _______ _______ _______ _____ _____    ______ ____
ROOT
ATOM      1  C   LIG    1       21.503  46.221 183.461  0.00  0.00    +0.173 C 
ENDROOT
BRANCH   1   4
ATOM      2  N   LIG    1       22.862  44.251 184.025  0.00  0.00    -0.282 N 
ATOM      3  H   LIG    1       21.959  43.765 183.921  0.00  0.00    +0.155 HD
ATOM      4  C   LIG    1       22.813  45.618 183.920  0.00  0.00    +0.228 C 
ATOM      5  O   LIG    1       23.775  46.305 184.193  0.00  0.00    -0.275 OA
BRANCH   2   7
ATOM      6  C   LIG    1       23.932  42.867 185.673  0.00  0.00    +0.141 A 
ATOM      7  C   LIG    1       23.945  43.392 184.371  0.00  0.00    +0.077 A 
ATOM      8  C   LIG    1       24.971  43.050 183.487  0.00  0.00    +0.047 A 
ATOM      9  C   LIG    1       25.986  42.196 183.920  0.00  0.00    +0.043 A 
ATOM     10 CL   LIG    1       27.267  41.764 182.839  0.00  0.00    -0.083 Cl
ATOM     11  C   LIG    1       25.980  41.681 185.220  0.00  0.00    +0.024 A 
ATOM     12  C   LIG    1       24.952  42.014 186.098  0.00  0.00    +0.049 A 
BRANCH   6  14
ATOM     13  C   LIG    1       22.967  43.330 187.958  0.00  0.00    +0.277 C 
ATOM     14  O   LIG    1       22.876  43.217 186.518  0.00  0.00    -0.493 OA
ENDBRANCH   6  14
ENDBRANCH   2   7
ENDBRANCH   1   4
BRANCH   1  15
ATOM     15  S   LIG    1       21.933  47.555 182.278  0.00  0.00    -0.077 S 
BRANCH  15  16
ATOM     16  C   LIG    1       21.759  48.986 183.246  0.00  0.00    +0.190 A 
ATOM     17  N   LIG    1       20.769  49.014 184.139  0.00  0.00    -0.207 NA
ATOM     18  C   LIG    1       20.633  50.100 184.881  0.00  0.00    +0.126 A 
ATOM     19  C   LIG    1       21.496  51.182 184.738  0.00  0.00    +0.063 A 
ATOM     20  C   LIG    1       22.494  51.093 183.791  0.00  0.00    +0.117 A 
ATOM     21  N   LIG    1       22.620  50.002 183.049  0.00  0.00    -0.230 NA
BRANCH  18  22
ATOM     22  N   LIG    1       19.608  50.143 185.819  0.00  0.00    -0.315 N 
ATOM     23  C   LIG    1       18.347  50.770 185.377  0.00  0.00    +0.106 C 
ATOM     24  C   LIG    1       17.668  51.306 186.651  0.00  0.00    +0.019 C 
ATOM     25  C   LIG    1       17.402  50.112 187.585  0.00  0.00    +0.003 C 
ATOM     26  C   LIG    1       18.734  49.441 187.960  0.00  0.00    +0.019 C 
ATOM     27  C   LIG    1       19.409  48.945 186.666  0.00  0.00    +0.106 C 
ENDBRANCH  18  22
ENDBRANCH  15  16
ENDBRANCH   1  15
TORSDOF 6
ENDMDL
MODEL 8
REMARK VINA RESULT:      -7.5     30.550     31.865
REMARK  Name = ZINC000049399659
REMARK                            x       y       z     vdW  Elec       q    Type
REMARK                         _______ _______ _______ _____ _____    ______ ____
ROOT
ATOM      1  C   LIG    1       27.073  16.492 188.994  0.00  0.00    +0.173 C 
ENDROOT
BRANCH   1   4
ATOM      2  N   LIG    1       26.660  16.005 191.369  0.00  0.00    -0.282 N 
ATOM      3  H   LIG    1       25.780  15.617 190.998  0.00  0.00    +0.155 HD
ATOM      4  C   LIG    1       27.464  16.631 190.449  0.00  0.00    +0.228 C 
ATOM      5  O   LIG    1       28.435  17.271 190.795  0.00  0.00    -0.275 OA
BRANCH   2   7
ATOM      6  C   LIG    1       25.633  15.520 193.487  0.00  0.00    +0.141 A 
ATOM      7  C   LIG    1       26.788  15.902 192.784  0.00  0.00    +0.077 A 
ATOM      8  C   LIG    1       27.981  16.136 193.471  0.00  0.00    +0.047 A 
ATOM      9  C   LIG    1       28.005  16.004 194.860  0.00  0.00    +0.043 A 
ATOM     10 CL   LIG    1       29.475  16.294 195.727  0.00  0.00    -0.083 Cl
ATOM     11  C   LIG    1       26.854  15.634 195.562  0.00  0.00    +0.024 A 
ATOM     12  C   LIG    1       25.666  15.390 194.876  0.00  0.00    +0.049 A 
BRANCH   6  14
ATOM     13  C   LIG    1       23.191  14.907 193.335  0.00  0.00    +0.277 C 
ATOM     14  O   LIG    1       24.467  15.273 192.759  0.00  0.00    -0.493 OA
ENDBRANCH   6  14
ENDBRANCH   2   7
ENDBRANCH   1   4
BRANCH   1  15
ATOM     15  S   LIG    1       28.122  17.672 188.061  0.00  0.00    -0.077 S 
BRANCH  15  16
ATOM     16  C   LIG    1       27.904  17.151 186.419  0.00  0.00    +0.190 A 
ATOM     17  N   LIG    1       28.940  17.270 185.588  0.00  0.00    -0.207 NA
ATOM     18  C   LIG    1       28.781  16.873 184.337  0.00  0.00    +0.126 A 
ATOM     19  C   LIG    1       27.571  16.344 183.899  0.00  0.00    +0.063 A 
ATOM     20  C   LIG    1       26.537  16.255 184.804  0.00  0.00    +0.117 A 
ATOM     21  N   LIG    1       26.704  16.659 186.056  0.00  0.00    -0.230 NA
BRANCH  18  22
ATOM     22  N   LIG    1       29.854  16.988 183.459  0.00  0.00    -0.315 N 
ATOM     23  C   LIG    1       29.516  17.056 182.025  0.00  0.00    +0.106 C 
ATOM     24  C   LIG    1       30.742  16.510 181.271  0.00  0.00    +0.019 C 
ATOM     25  C   LIG    1       31.945  17.410 181.606  0.00  0.00    +0.003 C 
ATOM     26  C   LIG    1       32.215  17.371 183.120  0.00  0.00    +0.019 C 
ATOM     27  C   LIG    1       30.961  17.888 183.851  0.00  0.00    +0.106 C 
ENDBRANCH  18  22
ENDBRANCH  15  16
ENDBRANCH   1  15
TORSDOF 6
ENDMDL
MODEL 9
REMARK VINA RESULT:      -7.4      1.954      2.627
REMARK  Name = ZINC000049399659
REMARK                            x       y       z     vdW  Elec       q    Type
REMARK                         _______ _______ _______ _____ _____    ______ ____
ROOT
ATOM      1  C   LIG    1       23.813  46.034 183.486  0.00  0.00    +0.173 C 
ENDROOT
BRANCH   1   4
ATOM      2  N   LIG    1       22.045  47.718 183.189  0.00  0.00    -0.282 N 
ATOM      3  H   LIG    1       21.683  47.024 182.518  0.00  0.00    +0.155 HD
ATOM      4  C   LIG    1       23.262  47.418 183.750  0.00  0.00    +0.228 C 
ATOM      5  O   LIG    1       23.864  48.233 184.418  0.00  0.00    -0.275 OA
BRANCH   2   7
ATOM      6  C   LIG    1       20.221  48.864 184.252  0.00  0.00    +0.141 A 
ATOM      7  C   LIG    1       21.247  48.893 183.294  0.00  0.00    +0.077 A 
ATOM      8  C   LIG    1       21.454  50.038 182.523  0.00  0.00    +0.047 A 
ATOM      9  C   LIG    1       20.620  51.142 182.704  0.00  0.00    +0.043 A 
ATOM     10 CL   LIG    1       20.860  52.569 181.754  0.00  0.00    -0.083 Cl
ATOM     11  C   LIG    1       19.590  51.111 183.650  0.00  0.00    +0.024 A 
ATOM     12  C   LIG    1       19.391  49.972 184.427  0.00  0.00    +0.049 A 
BRANCH   6  14
ATOM     13  C   LIG    1       20.564  47.525 186.363  0.00  0.00    +0.277 C 
ATOM     14  O   LIG    1       20.062  47.707 185.018  0.00  0.00    -0.493 OA
ENDBRANCH   6  14
ENDBRANCH   2   7
ENDBRANCH   1   4
BRANCH   1  15
ATOM     15  S   LIG    1       22.453  44.857 183.842  0.00  0.00    -0.077 S 
BRANCH  15  16
ATOM     16  C   LIG    1       23.102  43.916 185.148  0.00  0.00    +0.190 A 
ATOM     17  N   LIG    1       22.729  44.236 186.388  0.00  0.00    -0.207 NA
ATOM     18  C   LIG    1       23.217  43.520 187.387  0.00  0.00    +0.126 A 
ATOM     19  C   LIG    1       24.092  42.464 187.155  0.00  0.00    +0.063 A 
ATOM     20  C   LIG    1       24.444  42.189 185.852  0.00  0.00    +0.117 A 
ATOM     21  N   LIG    1       23.953  42.914 184.856  0.00  0.00    -0.230 NA
BRANCH  18  22
ATOM     22  N   LIG    1       22.835  43.841 188.686  0.00  0.00    -0.315 N 
ATOM     23  C   LIG    1       23.918  43.906 189.685  0.00  0.00    +0.106 C 
ATOM     24  C   LIG    1       23.265  43.595 191.044  0.00  0.00    +0.019 C 
ATOM     25  C   LIG    1       22.192  44.665 191.310  0.00  0.00    +0.003 C 
ATOM     26  C   LIG    1       21.124  44.615 190.205  0.00  0.00    +0.019 C 
ATOM     27  C   LIG    1       21.809  44.895 188.854  0.00  0.00    +0.106 C 
ENDBRANCH  18  22
ENDBRANCH  15  16
ENDBRANCH   1  15
TORSDOF 6
ENDMDL
