REMARK VINA RESULT:      -7.8      1.484      3.112
REMARK  Name = ZINC000006086011
REMARK                            x       y       z     vdW  Elec       q    Type
REMARK                         _______ _______ _______ _____ _____    ______ ____
ROOT
ATOM      1  N   LIG    1       33.268  18.562 186.556  0.00  0.00    -0.286 NA
ATOM      2  C   LIG    1       31.922  19.068 186.900  0.00  0.00    +0.106 C 
ENDROOT
BRANCH   1   3
ATOM      3  C   LIG    1       34.383  19.489 187.000  0.00  0.00    +0.140 C 
ATOM      4  C   LIG    1       34.834  20.396 185.830  0.00  0.00    +0.034 C 
BRANCH   3   7
ATOM      5  N   LIG    1       35.607  18.558 188.899  0.00  0.00    -0.281 N 
ATOM      6  H   LIG    1       34.815  19.029 189.367  0.00  0.00    +0.155 HD
ATOM      7  C   LIG    1       35.563  18.649 187.533  0.00  0.00    +0.234 C 
ATOM      8  O   LIG    1       36.372  18.071 186.831  0.00  0.00    -0.274 OA
BRANCH   5  10
ATOM      9  C   LIG    1       37.433  18.639 190.450  0.00  0.00    +0.141 A 
ATOM     10  C   LIG    1       36.487  17.860 189.767  0.00  0.00    +0.076 A 
ATOM     11  C   LIG    1       36.457  16.476 189.953  0.00  0.00    +0.027 A 
ATOM     12  C   LIG    1       37.363  15.881 190.828  0.00  0.00    +0.002 A 
ATOM     13  C   LIG    1       38.299  16.658 191.512  0.00  0.00    +0.004 A 
ATOM     14  C   LIG    1       38.338  18.038 191.324  0.00  0.00    +0.047 A 
BRANCH   9  16
ATOM     15  C   LIG    1       37.356  21.018 191.280  0.00  0.00    +0.277 C 
ATOM     16  O   LIG    1       37.425  20.015 190.236  0.00  0.00    -0.493 OA
ENDBRANCH   9  16
ENDBRANCH   5  10
ENDBRANCH   3   7
ENDBRANCH   1   3
BRANCH   1  17
ATOM     17  C   LIG    1       33.355  18.155 185.101  0.00  0.00    +0.181 C 
BRANCH  17  18
ATOM     18  C   LIG    1       31.991  18.311 184.435  0.00  0.00    +0.231 C 
ATOM     19  N   LIG    1       31.187  17.198 184.407  0.00  0.00    -0.284 N 
ATOM     20  H   LIG    1       31.567  16.360 184.872  0.00  0.00    +0.155 HD
ATOM     21  O   LIG    1       31.634  19.356 183.924  0.00  0.00    -0.274 OA
BRANCH  19  22
ATOM     22  C   LIG    1       29.930  17.056 183.775  0.00  0.00    +0.041 A 
ATOM     23  C   LIG    1       28.755  17.113 184.588  0.00  0.00    +0.003 A 
ATOM     24  C   LIG    1       28.788  17.220 186.006  0.00  0.00    +0.010 A 
ATOM     25  C   LIG    1       27.626  17.308 186.735  0.00  0.00    +0.001 A 
ATOM     26  C   LIG    1       26.377  17.280 186.087  0.00  0.00    +0.001 A 
ATOM     27  C   LIG    1       26.311  17.156 184.719  0.00  0.00    +0.008 A 
ATOM     28  C   LIG    1       27.493  17.062 183.942  0.00  0.00    -0.016 A 
ATOM     29  C   LIG    1       27.434  16.917 182.532  0.00  0.00    +0.008 A 
ATOM     30  C   LIG    1       28.586  16.843 181.782  0.00  0.00    +0.002 A 
ATOM     31  C   LIG    1       29.846  16.917 182.402  0.00  0.00    +0.024 A 
ENDBRANCH  19  22
ENDBRANCH  17  18
ENDBRANCH   1  17
TORSDOF 7
