REMARK VINA RESULT:      -7.7      4.751      8.359
REMARK  Name = ZINC000006083105
REMARK                            x       y       z     vdW  Elec       q    Type
REMARK                         _______ _______ _______ _____ _____    ______ ____
ROOT
ATOM      1  C   LIG    1       23.678  43.429 183.812  0.00  0.00    +0.083 C 
ENDROOT
BRANCH   1   2
ATOM      2  C   LIG    1       23.584  43.485 185.324  0.00  0.00    +0.111 A 
ATOM      3  N   LIG    1       24.297  42.524 186.010  0.00  0.00    -0.310 N 
ATOM      4  H   LIG    1       24.803  41.788 185.497  0.00  0.00    +0.170 HD
ATOM      5  C   LIG    1       24.291  42.427 187.368  0.00  0.00    +0.260 A 
ATOM      6  O   LIG    1       24.961  41.504 187.832  0.00  0.00    -0.267 OA
ATOM      7  C   LIG    1       23.505  43.392 188.079  0.00  0.00    +0.075 A 
ATOM      8  C   LIG    1       23.298  43.561 189.471  0.00  0.00    -0.023 A 
ATOM      9  C   LIG    1       23.906  42.677 190.546  0.00  0.00    +0.037 C 
ATOM     10  C   LIG    1       23.774  43.406 191.897  0.00  0.00    +0.005 C 
ATOM     11  C   LIG    1       22.347  43.942 192.113  0.00  0.00    +0.005 C 
ATOM     12  C   LIG    1       22.018  45.070 191.118  0.00  0.00    +0.043 C 
ATOM     13  C   LIG    1       22.450  44.596 189.748  0.00  0.00    -0.004 A 
ATOM     14  S   LIG    1       21.905  45.398 188.311  0.00  0.00    -0.073 S 
ATOM     15  C   LIG    1       22.819  44.315 187.328  0.00  0.00    +0.116 A 
ATOM     16  N   LIG    1       22.863  44.349 185.936  0.00  0.00    -0.227 NA
ENDBRANCH   1   2
BRANCH   1  17
ATOM     17  C   LIG    1       24.782  44.426 183.368  0.00  0.00    +0.104 C 
BRANCH  17  20
ATOM     18  N   LIG    1       23.485  46.484 183.719  0.00  0.00    -0.285 N 
ATOM     19  H   LIG    1       23.599  46.241 184.709  0.00  0.00    +0.155 HD
ATOM     20  C   LIG    1       24.106  45.665 182.817  0.00  0.00    +0.218 C 
ATOM     21  O   LIG    1       24.087  45.912 181.628  0.00  0.00    -0.275 OA
BRANCH  18  25
ATOM     22  C   LIG    1       21.144  49.831 182.809  0.00  0.00    +0.121 A 
ATOM     23  C   LIG    1       20.546  48.578 182.970  0.00  0.00    +0.047 A 
ATOM     24  C   LIG    1       21.339  47.476 183.280  0.00  0.00    +0.027 A 
ATOM     25  C   LIG    1       22.718  47.640 183.430  0.00  0.00    +0.034 A 
ATOM     26  C   LIG    1       23.315  48.893 183.262  0.00  0.00    +0.027 A 
ATOM     27  C   LIG    1       22.520  49.992 182.952  0.00  0.00    +0.047 A 
BRANCH  22  28
ATOM     28  O   LIG    1       20.408  50.957 182.505  0.00  0.00    -0.492 OA
BRANCH  28  30
ATOM     29  C   LIG    1       19.732  51.811 184.591  0.00  0.00    +0.048 C 
ATOM     30  C   LIG    1       20.412  52.178 183.273  0.00  0.00    +0.225 C 
ENDBRANCH  28  30
ENDBRANCH  22  28
ENDBRANCH  18  25
ENDBRANCH  17  20
ENDBRANCH   1  17
TORSDOF 6
