REMARK VINA RESULT:      -7.6      5.056      8.933
REMARK  Name = ZINC000006084415
REMARK                            x       y       z     vdW  Elec       q    Type
REMARK                         _______ _______ _______ _____ _____    ______ ____
ROOT
ATOM      1  O   LIG    1       22.363  48.631 183.503  0.00  0.00    -0.451 OA
ENDROOT
BRANCH   1   2
ATOM      2  C   LIG    1       22.303  49.497 184.546  0.00  0.00    +0.356 C 
ATOM      3  O   LIG    1       23.324  50.104 184.837  0.00  0.00    -0.243 OA
BRANCH   2   7
ATOM      4  C   LIG    1       19.008  50.152 186.095  0.00  0.00    +0.041 A 
ATOM      5  C   LIG    1       20.038  50.581 185.226  0.00  0.00    -0.008 A 
ATOM      6  C   LIG    1       20.061  51.879 184.440  0.00  0.00    +0.047 C 
ATOM      7  C   LIG    1       21.022  49.620 185.214  0.00  0.00    +0.128 A 
ATOM      8  N   LIG    1       20.604  48.623 186.057  0.00  0.00    -0.352 N 
ATOM      9  H   LIG    1       21.154  47.766 186.256  0.00  0.00    +0.166 HD
ATOM     10  C   LIG    1       19.402  48.918 186.596  0.00  0.00    +0.024 A 
ATOM     11  C   LIG    1       18.773  47.935 187.564  0.00  0.00    +0.064 C 
BRANCH   4  13
ATOM     12  C   LIG    1       17.457  51.401 187.779  0.00  0.00    +0.091 C 
ATOM     13  C   LIG    1       17.778  50.889 186.396  0.00  0.00    +0.162 C 
ATOM     14  O   LIG    1       16.944  51.132 185.548  0.00  0.00    -0.292 OA
ENDBRANCH   4  13
ENDBRANCH   2   7
ENDBRANCH   1   2
BRANCH   1  15
ATOM     15  C   LIG    1       22.816  47.244 183.705  0.00  0.00    +0.328 C 
BRANCH  15  16
ATOM     16  C   LIG    1       21.778  46.320 183.069  0.00  0.00    +0.256 C 
ATOM     17  N   LIG    1       21.807  44.965 183.169  0.00  0.00    -0.266 N 
ATOM     18  H   LIG    1       20.955  44.514 182.811  0.00  0.00    +0.156 HD
ATOM     19  O   LIG    1       20.853  46.745 182.405  0.00  0.00    -0.272 OA
BRANCH  17  20
ATOM     20  C   LIG    1       22.802  44.133 183.709  0.00  0.00    +0.144 A 
ATOM     21  C   LIG    1       23.887  43.733 182.902  0.00  0.00    +0.082 A 
ATOM     22 CL   LIG    1       24.010  44.233 181.245  0.00  0.00    -0.080 Cl
ATOM     23  C   LIG    1       24.872  42.930 183.453  0.00  0.00    +0.045 A 
ATOM     24  C   LIG    1       24.744  42.562 184.790  0.00  0.00    +0.063 A 
ATOM     25 CL   LIG    1       25.964  41.556 185.499  0.00  0.00    -0.082 Cl
ATOM     26  C   LIG    1       23.641  43.009 185.537  0.00  0.00    +0.059 A 
ATOM     27  C   LIG    1       23.469  42.637 186.995  0.00  0.00    +0.067 C 
ATOM     28  N   LIG    1       22.695  43.784 184.992  0.00  0.00    -0.234 NA
ENDBRANCH  17  20
ENDBRANCH  15  16
ENDBRANCH   1  15
TORSDOF 6
