REMARK VINA RESULT:      -6.6      4.617     10.638
REMARK  Name = ZINC000006084756
REMARK                            x       y       z     vdW  Elec       q    Type
REMARK                         _______ _______ _______ _____ _____    ______ ____
ROOT
ATOM      1  C   LIG    1       24.060  45.579 211.387  0.00  0.00    +0.125 C 
ENDROOT
BRANCH   1   2
ATOM      2  N   LIG    1       23.883  44.121 211.584  0.00  0.00    -0.336 N 
ATOM      3  H   LIG    1       23.073  43.875 212.174  0.00  0.00    +0.147 HD
BRANCH   2   4
ATOM      4  C   LIG    1       24.106  43.230 210.535  0.00  0.00    +0.079 C 
ATOM      5  S   LIG    1       25.595  43.210 209.753  0.00  0.00    -0.035 S 
BRANCH   4   6
ATOM      6  C   LIG    1       22.984  42.347 210.197  0.00  0.00    +0.003 A 
ATOM      7  C   LIG    1       21.707  42.602 210.720  0.00  0.00    +0.012 A 
ATOM      8  C   LIG    1       20.632  41.777 210.413  0.00  0.00    +0.024 A 
ATOM      9  C   LIG    1       20.821  40.678 209.574  0.00  0.00    +0.033 A 
ATOM     10  C   LIG    1       22.088  40.397 209.053  0.00  0.00    +0.024 A 
ATOM     11  C   LIG    1       23.157  41.229 209.362  0.00  0.00    +0.012 A 
BRANCH   9  12
ATOM     12  N   LIG    1       19.687  39.871 209.315  0.00  0.00    -0.286 N 
ATOM     13  H   LIG    1       19.416  39.216 210.056  0.00  0.00    +0.155 HD
ATOM     14  C   LIG    1       18.864  39.887 208.220  0.00  0.00    +0.214 C 
ATOM     15  O   LIG    1       19.024  40.672 207.313  0.00  0.00    -0.276 OA
ATOM     16  C   LIG    1       17.739  38.890 208.227  0.00  0.00    +0.109 C 
ENDBRANCH   9  12
ENDBRANCH   4   6
ENDBRANCH   2   4
ENDBRANCH   1   2
BRANCH   1  17
ATOM     17  C   LIG    1       22.996  46.058 210.352  0.00  0.00    +0.104 C 
BRANCH  17  21
ATOM     18  C   LIG    1       20.552  49.231 211.981  0.00  0.00    +0.120 A 
ATOM     19  C   LIG    1       19.971  47.991 211.746  0.00  0.00    +0.046 A 
ATOM     20  C   LIG    1       20.745  46.953 211.240  0.00  0.00    +0.009 A 
ATOM     21  C   LIG    1       22.105  47.147 210.961  0.00  0.00    -0.029 A 
ATOM     22  C   LIG    1       22.677  48.395 211.227  0.00  0.00    +0.009 A 
ATOM     23  C   LIG    1       21.908  49.438 211.732  0.00  0.00    +0.046 A 
BRANCH  18  25
ATOM     24  C   LIG    1       18.321  50.078 212.733  0.00  0.00    +0.277 C 
ATOM     25  O   LIG    1       19.735  50.228 212.463  0.00  0.00    -0.495 OA
ENDBRANCH  18  25
ENDBRANCH  17  21
BRANCH  17  26
ATOM     26  N   LIG    1       23.607  46.579 209.094  0.00  0.00    -0.294 NA
ATOM     27  C   LIG    1       23.318  45.758 207.905  0.00  0.00    +0.085 C 
ATOM     28  C   LIG    1       24.676  45.657 207.204  0.00  0.00    +0.017 C 
ATOM     29  C   LIG    1       25.379  46.933 207.657  0.00  0.00    +0.017 C 
ATOM     30  C   LIG    1       25.027  46.949 209.140  0.00  0.00    +0.085 C 
ENDBRANCH  17  26
ENDBRANCH   1  17
TORSDOF 8
