REMARK VINA RESULT:      -9.0      1.176      2.033
REMARK  Name = ZINC000000593415
REMARK                            x       y       z     vdW  Elec       q    Type
REMARK                         _______ _______ _______ _____ _____    ______ ____
ROOT
ATOM      1  C   LIG    1       25.452  42.019 184.051  0.00  0.00    -0.043 A 
ATOM      2  C   LIG    1       24.460  43.000 183.984  0.00  0.00    +0.006 A 
ATOM      3  C   LIG    1       23.782  43.407 185.128  0.00  0.00    +0.023 A 
ATOM      4  C   LIG    1       24.091  42.823 186.355  0.00  0.00    +0.034 A 
ATOM      5  C   LIG    1       25.086  41.850 186.444  0.00  0.00    +0.023 A 
ATOM      6  C   LIG    1       25.758  41.450 185.295  0.00  0.00    +0.006 A 
ENDROOT
BRANCH   4   7
ATOM      7  N   LIG    1       23.381  43.271 187.494  0.00  0.00    -0.282 N 
ATOM      8  H   LIG    1       22.377  43.438 187.375  0.00  0.00    +0.155 HD
ATOM      9  C   LIG    1       23.874  43.401 188.778  0.00  0.00    +0.248 C 
ATOM     10  O   LIG    1       25.005  43.005 189.023  0.00  0.00    -0.270 OA
BRANCH   9  11
ATOM     11  C   LIG    1       22.998  43.973 189.806  0.00  0.00    +0.042 A 
ATOM     12  C   LIG    1       22.149  45.063 189.535  0.00  0.00    +0.051 A 
ATOM     13  C   LIG    1       21.329  45.562 190.541  0.00  0.00    +0.127 A 
ATOM     14  F   LIG    1       20.519  46.602 190.257  0.00  0.00    -0.205 F 
ATOM     15  C   LIG    1       21.314  45.031 191.822  0.00  0.00    +0.076 A 
ATOM     16  C   LIG    1       22.166  43.967 192.076  0.00  0.00    +0.127 A 
ATOM     17  F   LIG    1       22.180  43.428 193.313  0.00  0.00    -0.205 F 
ATOM     18  C   LIG    1       23.002  43.432 191.103  0.00  0.00    +0.051 A 
ENDBRANCH   9  11
ENDBRANCH   4   7
BRANCH   1  19
ATOM     19  C   LIG    1       26.128  41.571 182.749  0.00  0.00    +0.031 C 
ATOM     20  C   LIG    1       25.199  41.749 181.534  0.00  0.00    +0.014 C 
BRANCH  19  21
ATOM     21  C   LIG    1       27.466  42.330 182.589  0.00  0.00    +0.113 C 
BRANCH  21  22
ATOM     22  N   LIG    1       27.396  43.105 181.355  0.00  0.00    -0.194 NA
ATOM     23  H   LIG    1       26.534  42.840 180.874  0.00  0.00    +0.148 HD
BRANCH  22  24
ATOM     24  S   LIG    1       27.574  44.722 181.471  0.00  0.00    +0.032 S 
ATOM     25  O   LIG    1       27.403  45.086 182.833  0.00  0.00    -0.158 OA
ATOM     26  O   LIG    1       28.798  45.094 180.853  0.00  0.00    -0.158 OA
BRANCH  24  28
ATOM     27  C   LIG    1       24.821  45.435 181.205  0.00  0.00    +0.033 C 
ATOM     28  C   LIG    1       26.206  45.409 180.508  0.00  0.00    +0.142 C 
ATOM     29  C   LIG    1       26.410  46.858 179.996  0.00  0.00    +0.033 C 
ENDBRANCH  24  28
ENDBRANCH  22  24
ENDBRANCH  21  22
ENDBRANCH  19  21
ENDBRANCH   1  19
TORSDOF 7
