REMARK VINA RESULT:      -7.5      0.000      0.000
REMARK  Name = ZINC000006087402
REMARK                            x       y       z     vdW  Elec       q    Type
REMARK                         _______ _______ _______ _____ _____    ______ ____
ROOT
ATOM      1  C   LIG    1       21.946  46.507 183.081  0.00  0.00    +0.214 C 
ENDROOT
BRANCH   1   7
ATOM      2  C   LIG    1       18.636  50.298 186.001  0.00  0.00    +0.010 C 
ATOM      3  C   LIG    1       19.290  49.951 184.642  0.00  0.00    +0.018 C 
ATOM      4  C   LIG    1       20.823  49.661 184.779  0.00  0.00    +0.115 C 
ATOM      5  C   LIG    1       21.349  48.891 183.561  0.00  0.00    +0.247 C 
ATOM      6  O   LIG    1       21.490  49.234 182.400  0.00  0.00    -0.273 OA
ATOM      7  N   LIG    1       21.672  47.637 183.974  0.00  0.00    -0.215 N 
ATOM      8  C   LIG    1       21.444  47.502 185.314  0.00  0.00    +0.310 C 
ATOM      9  O   LIG    1       21.558  46.467 185.946  0.00  0.00    -0.252 OA
ATOM     10  N   LIG    1       21.054  48.682 185.833  0.00  0.00    -0.285 N 
ATOM     11  H   LIG    1       20.557  48.686 186.729  0.00  0.00    +0.151 HD
ATOM     12  C   LIG    1       21.664  50.924 185.101  0.00  0.00    +0.035 C 
ATOM     13  C   LIG    1       21.386  52.019 184.054  0.00  0.00    +0.003 C 
ATOM     14  C   LIG    1       19.892  52.352 183.953  0.00  0.00    +0.000 C 
ATOM     15  C   LIG    1       19.073  51.094 183.628  0.00  0.00    +0.006 C 
ENDBRANCH   1   7
BRANCH   1  16
ATOM     16  C   LIG    1       23.463  46.376 182.926  0.00  0.00    +0.238 C 
ATOM     17  N   LIG    1       23.970  45.495 181.984  0.00  0.00    -0.267 N 
ATOM     18  O   LIG    1       24.250  47.021 183.609  0.00  0.00    -0.274 OA
BRANCH  17  19
ATOM     19  C   LIG    1       23.145  44.584 181.273  0.00  0.00    +0.010 C 
ATOM     20  C   LIG    1       22.613  43.411 182.080  0.00  0.00    +0.051 C 
ATOM     21  C   LIG    1       22.150  42.325 181.086  0.00  0.00    +0.006 C 
ATOM     22  C   LIG    1       21.175  42.987 180.091  0.00  0.00    +0.004 C 
ATOM     23  C   LIG    1       21.997  43.884 179.139  0.00  0.00    +0.029 C 
ATOM     24  C   LIG    1       22.856  44.812 179.977  0.00  0.00    -0.008 C 
ENDBRANCH  17  19
BRANCH  17  25
ATOM     25  C   LIG    1       25.431  45.416 181.783  0.00  0.00    +0.187 C 
BRANCH  25  26
ATOM     26  C   LIG    1       25.880  44.179 182.534  0.00  0.00    +0.122 A 
ATOM     27  O   LIG    1       25.855  44.149 183.896  0.00  0.00    -0.466 OA
ATOM     28  C   LIG    1       26.319  42.933 184.281  0.00  0.00    +0.195 A 
ATOM     29  C   LIG    1       26.633  42.202 183.188  0.00  0.00    +0.041 A 
ATOM     30  C   LIG    1       26.354  42.998 182.073  0.00  0.00    +0.046 A 
ENDBRANCH  25  26
ENDBRANCH  17  25
ENDBRANCH   1  16
TORSDOF 5
