REMARK VINA RESULT:      -6.8      7.008      9.456
REMARK  Name = ZINC000078751741
REMARK                            x       y       z     vdW  Elec       q    Type
REMARK                         _______ _______ _______ _____ _____    ______ ____
ROOT
ATOM      1  S   LIG    1       22.144  46.546 186.021  0.00  0.00    +0.073 S 
ATOM      2  O   LIG    1       22.486  45.337 185.365  0.00  0.00    -0.150 OA
ATOM      3  O   LIG    1       23.105  47.588 186.015  0.00  0.00    -0.150 OA
ENDROOT
BRANCH   1   6
ATOM      4  C   LIG    1       19.669  47.764 187.932  0.00  0.00    +0.053 C 
ATOM      5  C   LIG    1       20.656  46.723 188.419  0.00  0.00    +0.014 A 
ATOM      6  C   LIG    1       21.706  46.166 187.724  0.00  0.00    +0.119 A 
ATOM      7  C   LIG    1       22.418  45.238 188.505  0.00  0.00    +0.051 A 
ATOM      8  C   LIG    1       21.911  45.070 189.773  0.00  0.00    +0.098 A 
ATOM      9  S   LIG    1       20.537  46.096 190.021  0.00  0.00    -0.085 S 
BRANCH   8  10
ATOM     10  C   LIG    1       22.398  44.175 190.804  0.00  0.00    +0.344 C 
ATOM     11  O   LIG    1       22.812  44.524 191.890  0.00  0.00    -0.245 OA
BRANCH  10  12
ATOM     12  O   LIG    1       22.402  42.871 190.557  0.00  0.00    -0.477 OA
ATOM     13  H   LIG    1       23.279  42.665 190.195  0.00  0.00    +0.295 HD
ENDBRANCH  10  12
ENDBRANCH   8  10
ENDBRANCH   1   6
BRANCH   1  14
ATOM     14  N   LIG    1       20.755  47.132 185.341  0.00  0.00    -0.213 N 
ATOM     15  H   LIG    1       20.324  47.535 186.183  0.00  0.00    +0.174 HD
BRANCH  14  16
ATOM     16  C   LIG    1       20.980  48.136 184.390  0.00  0.00    +0.084 A 
ATOM     17  C   LIG    1       21.293  47.813 183.067  0.00  0.00    +0.146 A 
ATOM     18  F   LIG    1       21.411  46.516 182.709  0.00  0.00    -0.204 F 
ATOM     19  C   LIG    1       21.486  48.795 182.110  0.00  0.00    +0.041 A 
ATOM     20  C   LIG    1       21.376  50.136 182.482  0.00  0.00    +0.015 A 
ATOM     21  C   LIG    1       21.082  50.491 183.811  0.00  0.00    +0.057 A 
ATOM     22  C   LIG    1       20.907  49.479 184.766  0.00  0.00    +0.039 A 
BRANCH  21  23
ATOM     23  C   LIG    1       20.976  51.964 184.237  0.00  0.00    +0.417 C 
ATOM     24  F   LIG    1       20.827  52.762 183.167  0.00  0.00    -0.166 F 
ATOM     25  F   LIG    1       22.091  52.312 184.894  0.00  0.00    -0.166 F 
ATOM     26  F   LIG    1       19.917  52.127 185.055  0.00  0.00    -0.166 F 
ENDBRANCH  21  23
ENDBRANCH  14  16
ENDBRANCH   1  14
TORSDOF 6
