REMARK VINA RESULT:      -6.8      1.803      3.170
REMARK  Name = ZINC000006087402
REMARK                            x       y       z     vdW  Elec       q    Type
REMARK                         _______ _______ _______ _____ _____    ______ ____
ROOT
ATOM      1  C   LIG    1       23.426  48.389 181.868  0.00  0.00    +0.214 C 
ENDROOT
BRANCH   1   7
ATOM      2  C   LIG    1       19.670  48.943 186.277  0.00  0.00    +0.010 C 
ATOM      3  C   LIG    1       19.889  49.106 184.753  0.00  0.00    +0.018 C 
ATOM      4  C   LIG    1       21.165  49.952 184.425  0.00  0.00    +0.115 C 
ATOM      5  C   LIG    1       21.620  49.723 182.978  0.00  0.00    +0.247 C 
ATOM      6  O   LIG    1       21.105  50.038 181.920  0.00  0.00    -0.273 OA
ATOM      7  N   LIG    1       22.798  49.045 183.019  0.00  0.00    -0.215 N 
ATOM      8  C   LIG    1       23.177  48.825 184.312  0.00  0.00    +0.310 C 
ATOM      9  O   LIG    1       24.142  48.168 184.660  0.00  0.00    -0.252 OA
ATOM     10  N   LIG    1       22.313  49.427 185.152  0.00  0.00    -0.285 N 
ATOM     11  H   LIG    1       22.271  49.111 186.127  0.00  0.00    +0.151 HD
ATOM     12  C   LIG    1       21.016  51.455 184.778  0.00  0.00    +0.035 C 
ATOM     13  C   LIG    1       19.763  52.032 184.095  0.00  0.00    +0.003 C 
ATOM     14  C   LIG    1       18.497  51.245 184.456  0.00  0.00    +0.000 C 
ATOM     15  C   LIG    1       18.656  49.760 184.096  0.00  0.00    +0.006 C 
ENDBRANCH   1   7
BRANCH   1  16
ATOM     16  C   LIG    1       22.896  46.956 181.787  0.00  0.00    +0.238 C 
ATOM     17  N   LIG    1       23.795  45.913 181.626  0.00  0.00    -0.267 N 
ATOM     18  O   LIG    1       21.701  46.693 181.856  0.00  0.00    -0.274 OA
BRANCH  17  19
ATOM     19  C   LIG    1       25.173  46.132 181.363  0.00  0.00    +0.010 C 
ATOM     20  C   LIG    1       25.587  46.039 179.903  0.00  0.00    +0.051 C 
ATOM     21  C   LIG    1       27.117  45.843 179.857  0.00  0.00    +0.006 C 
ATOM     22  C   LIG    1       27.758  46.970 180.693  0.00  0.00    +0.004 C 
ATOM     23  C   LIG    1       27.497  46.666 182.186  0.00  0.00    +0.029 C 
ATOM     24  C   LIG    1       26.009  46.433 182.374  0.00  0.00    -0.008 C 
ENDBRANCH  17  19
BRANCH  17  25
ATOM     25  C   LIG    1       23.295  44.523 181.616  0.00  0.00    +0.187 C 
BRANCH  25  26
ATOM     26  C   LIG    1       23.613  43.966 182.988  0.00  0.00    +0.122 A 
ATOM     27  O   LIG    1       22.887  44.345 184.076  0.00  0.00    -0.466 OA
ATOM     28  C   LIG    1       23.404  43.699 185.152  0.00  0.00    +0.195 A 
ATOM     29  C   LIG    1       24.438  42.924 184.759  0.00  0.00    +0.041 A 
ATOM     30  C   LIG    1       24.573  43.093 183.378  0.00  0.00    +0.046 A 
ENDBRANCH  25  26
ENDBRANCH  17  25
ENDBRANCH   1  16
TORSDOF 5
