REMARK VINA RESULT:      -7.2      0.000      0.000
REMARK  Name = ZINC000006084756
REMARK                            x       y       z     vdW  Elec       q    Type
REMARK                         _______ _______ _______ _____ _____    ______ ____
ROOT
ATOM      1  C   LIG    1       17.965  37.273 210.948  0.00  0.00    +0.125 C 
ENDROOT
BRANCH   1   2
ATOM      2  N   LIG    1       19.289  37.890 211.197  0.00  0.00    -0.336 N 
ATOM      3  H   LIG    1       20.010  37.622 210.510  0.00  0.00    +0.147 HD
BRANCH   2   4
ATOM      4  C   LIG    1       19.387  39.212 211.630  0.00  0.00    +0.079 C 
ATOM      5  S   LIG    1       18.470  39.738 212.938  0.00  0.00    -0.035 S 
BRANCH   4   6
ATOM      6  C   LIG    1       20.323  40.061 210.883  0.00  0.00    +0.003 A 
ATOM      7  C   LIG    1       20.281  41.454 211.035  0.00  0.00    +0.012 A 
ATOM      8  C   LIG    1       21.157  42.275 210.336  0.00  0.00    +0.024 A 
ATOM      9  C   LIG    1       22.094  41.709 209.469  0.00  0.00    +0.033 A 
ATOM     10  C   LIG    1       22.143  40.323 209.292  0.00  0.00    +0.024 A 
ATOM     11  C   LIG    1       21.265  39.508 209.997  0.00  0.00    +0.012 A 
BRANCH   9  12
ATOM     12  N   LIG    1       22.945  42.603 208.777  0.00  0.00    -0.286 N 
ATOM     13  H   LIG    1       22.573  43.008 207.912  0.00  0.00    +0.155 HD
ATOM     14  C   LIG    1       24.190  43.045 209.141  0.00  0.00    +0.214 C 
ATOM     15  O   LIG    1       24.708  42.709 210.182  0.00  0.00    -0.276 OA
ATOM     16  C   LIG    1       24.859  43.991 208.182  0.00  0.00    +0.109 C 
ENDBRANCH   9  12
ENDBRANCH   4   6
ENDBRANCH   2   4
ENDBRANCH   1   2
BRANCH   1  17
ATOM     17  C   LIG    1       17.617  37.469 209.441  0.00  0.00    +0.104 C 
BRANCH  17  21
ATOM     18  C   LIG    1       16.081  33.821 207.702  0.00  0.00    +0.120 A 
ATOM     19  C   LIG    1       15.827  34.083 209.043  0.00  0.00    +0.046 A 
ATOM     20  C   LIG    1       16.297  35.260 209.616  0.00  0.00    +0.009 A 
ATOM     21  C   LIG    1       17.027  36.182 208.853  0.00  0.00    -0.029 A 
ATOM     22  C   LIG    1       17.251  35.912 207.500  0.00  0.00    +0.009 A 
ATOM     23  C   LIG    1       16.786  34.736 206.921  0.00  0.00    +0.046 A 
BRANCH  18  25
ATOM     24  C   LIG    1       15.003  31.581 207.979  0.00  0.00    +0.277 C 
ATOM     25  O   LIG    1       15.609  32.633 207.193  0.00  0.00    -0.495 OA
ENDBRANCH  18  25
ENDBRANCH  17  21
BRANCH  17  26
ATOM     26  N   LIG    1       16.661  38.591 209.209  0.00  0.00    -0.294 NA
ATOM     27  C   LIG    1       17.303  39.839 208.758  0.00  0.00    +0.085 C 
ATOM     28  C   LIG    1       16.624  40.916 209.611  0.00  0.00    +0.017 C 
ATOM     29  C   LIG    1       15.267  40.290 209.917  0.00  0.00    +0.017 C 
ATOM     30  C   LIG    1       15.676  38.863 210.263  0.00  0.00    +0.085 C 
ENDBRANCH  17  26
ENDBRANCH   1  17
TORSDOF 8
