REMARK VINA RESULT:      -6.2      4.218      6.969
REMARK  Name = ZINC000006082796
REMARK                            x       y       z     vdW  Elec       q    Type
REMARK                         _______ _______ _______ _____ _____    ______ ____
ROOT
ATOM      1  N   LIG    1       22.774  45.555 184.049  0.00  0.00    -0.306 N 
ENDROOT
BRANCH   1   2
ATOM      2  C   LIG    1       23.430  44.429 184.522  0.00  0.00    +0.133 A 
ATOM      3  C   LIG    1       24.586  43.895 183.904  0.00  0.00    +0.051 A 
ATOM      4  C   LIG    1       25.377  44.313 182.789  0.00  0.00    -0.025 A 
ATOM      5  C   LIG    1       25.135  45.564 181.964  0.00  0.00    +0.037 C 
ATOM      6  C   LIG    1       26.390  45.854 181.122  0.00  0.00    +0.005 C 
ATOM      7  C   LIG    1       26.897  44.590 180.410  0.00  0.00    +0.005 C 
ATOM      8  C   LIG    1       27.433  43.569 181.427  0.00  0.00    +0.043 C 
ATOM      9  C   LIG    1       26.397  43.445 182.523  0.00  0.00    -0.004 A 
ATOM     10  S   LIG    1       26.454  42.116 183.635  0.00  0.00    -0.073 S 
ATOM     11  C   LIG    1       25.074  42.731 184.476  0.00  0.00    +0.114 A 
ATOM     12  N   LIG    1       24.529  42.158 185.576  0.00  0.00    -0.228 NA
ATOM     13  C   LIG    1       23.482  42.750 186.095  0.00  0.00    +0.224 A 
ATOM     14  N   LIG    1       22.913  43.874 185.602  0.00  0.00    -0.220 NA
ENDBRANCH   1   2
BRANCH   1  16
ATOM     15  C   LIG    1       21.634  46.130 182.025  0.00  0.00    +0.024 C 
ATOM     16  C   LIG    1       21.537  45.268 183.286  0.00  0.00    +0.104 C 
ENDBRANCH   1  16
BRANCH   1  17
ATOM     17  C   LIG    1       22.552  46.569 185.145  0.00  0.00    +0.202 C 
BRANCH  17  18
ATOM     18  C   LIG    1       23.080  47.950 184.737  0.00  0.00    +0.231 C 
ATOM     19  N   LIG    1       22.357  49.008 185.094  0.00  0.00    -0.309 N 
ATOM     20  H   LIG    1       21.587  48.826 185.721  0.00  0.00    +0.149 HD
ATOM     21  O   LIG    1       24.130  48.095 184.118  0.00  0.00    -0.274 OA
BRANCH  19  22
ATOM     22  C   LIG    1       22.751  50.377 184.833  0.00  0.00    +0.146 C 
BRANCH  22  23
ATOM     23  C   LIG    1       21.492  51.008 184.288  0.00  0.00    +0.007 A 
ATOM     24  S   LIG    1       21.409  51.550 182.646  0.00  0.00    -0.100 S 
ATOM     25  C   LIG    1       19.779  52.078 182.869  0.00  0.00    +0.045 A 
ATOM     26  C   LIG    1       19.342  51.848 184.141  0.00  0.00    +0.008 A 
ATOM     27  C   LIG    1       20.318  51.241 184.950  0.00  0.00    +0.013 A 
ENDBRANCH  22  23
ENDBRANCH  19  22
ENDBRANCH  17  18
ENDBRANCH   1  17
TORSDOF 6
