MODEL 1
REMARK VINA RESULT:      -8.9      0.000      0.000
REMARK  Name = ZINC000000607845
REMARK                            x       y       z     vdW  Elec       q    Type
REMARK                         _______ _______ _______ _____ _____    ______ ____
ROOT
ATOM      1  C   LIG    1       28.267  17.303 183.989  0.00  0.00    -0.021 A 
ATOM      2  C   LIG    1       29.650  17.544 184.164  0.00  0.00    +0.003 A 
ATOM      3  C   LIG    1       30.422  18.043 185.228  0.00  0.00    +0.014 A 
ATOM      4  C   LIG    1       31.800  18.138 185.091  0.00  0.00    -0.045 A 
ATOM      5  C   LIG    1       32.426  17.747 183.881  0.00  0.00    +0.006 A 
ATOM      6  C   LIG    1       31.677  17.265 182.821  0.00  0.00    +0.026 A 
ATOM      7  C   LIG    1       30.290  17.172 182.989  0.00  0.00    +0.047 A 
ATOM      8  N   LIG    1       29.316  16.728 182.117  0.00  0.00    -0.360 N 
ATOM      9  H   LIG    1       29.487  16.389 181.157  0.00  0.00    +0.165 HD
ATOM     10  C   LIG    1       28.087  16.810 182.734  0.00  0.00    +0.087 A 
ENDROOT
BRANCH   1  11
ATOM     11  C   LIG    1       27.176  17.541 185.016  0.00  0.00    +0.056 C 
BRANCH  11  14
ATOM     12  C   LIG    1       28.023  17.859 187.735  0.00  0.00    +0.105 C 
ATOM     13  N   LIG    1       27.306  16.617 187.391  0.00  0.00    -0.302 NA
ATOM     14  C   LIG    1       27.129  16.297 185.945  0.00  0.00    +0.061 C 
ATOM     15  C   LIG    1       25.722  15.664 185.873  0.00  0.00    +0.020 C 
ATOM     16  C   LIG    1       25.419  15.319 187.330  0.00  0.00    +0.017 C 
ATOM     17  C   LIG    1       26.012  16.522 188.056  0.00  0.00    +0.084 C 
ENDBRANCH  11  14
ENDBRANCH   1  11
BRANCH   4  18
ATOM     18  C   LIG    1       32.641  18.637 186.247  0.00  0.00    +0.058 C 
BRANCH  18  19
ATOM     19  C   LIG    1       34.081  18.717 185.713  0.00  0.00    +0.176 C 
BRANCH  19  20
ATOM     20  S   LIG    1       35.022  20.126 186.250  0.00  0.00    -0.003 S 
ATOM     21  O   LIG    1       34.116  21.175 186.573  0.00  0.00    -0.169 OA
ATOM     22  O   LIG    1       36.011  20.404 185.264  0.00  0.00    -0.169 OA
BRANCH  20  23
ATOM     23  C   LIG    1       35.827  19.552 187.755  0.00  0.00    +0.088 A 
ATOM     24  C   LIG    1       36.041  18.188 187.971  0.00  0.00    +0.027 A 
ATOM     25  C   LIG    1       36.663  17.744 189.134  0.00  0.00    +0.002 A 
ATOM     26  C   LIG    1       37.071  18.659 190.099  0.00  0.00    +0.000 A 
ATOM     27  C   LIG    1       36.852  20.018 189.902  0.00  0.00    +0.002 A 
ATOM     28  C   LIG    1       36.230  20.461 188.738  0.00  0.00    +0.027 A 
ENDBRANCH  20  23
ENDBRANCH  19  20
ENDBRANCH  18  19
ENDBRANCH   4  18
TORSDOF 6
ENDMDL
MODEL 2
REMARK VINA RESULT:      -8.5      1.809      2.489
REMARK  Name = ZINC000000607845
REMARK                            x       y       z     vdW  Elec       q    Type
REMARK                         _______ _______ _______ _____ _____    ______ ____
ROOT
ATOM      1  C   LIG    1       27.327  16.967 184.351  0.00  0.00    -0.021 A 
ATOM      2  C   LIG    1       28.573  16.995 183.681  0.00  0.00    +0.003 A 
ATOM      3  C   LIG    1       29.851  17.467 184.027  0.00  0.00    +0.014 A 
ATOM      4  C   LIG    1       30.903  17.321 183.133  0.00  0.00    -0.045 A 
ATOM      5  C   LIG    1       30.687  16.714 181.870  0.00  0.00    +0.006 A 
ATOM      6  C   LIG    1       29.431  16.256 181.511  0.00  0.00    +0.026 A 
ATOM      7  C   LIG    1       28.391  16.408 182.436  0.00  0.00    +0.047 A 
ATOM      8  N   LIG    1       27.061  16.044 182.349  0.00  0.00    -0.360 N 
ATOM      9  H   LIG    1       26.623  15.587 181.533  0.00  0.00    +0.165 HD
ATOM     10  C   LIG    1       26.422  16.386 183.519  0.00  0.00    +0.087 A 
ENDROOT
BRANCH   1  11
ATOM     11  C   LIG    1       27.048  17.482 185.751  0.00  0.00    +0.056 C 
BRANCH  11  14
ATOM     12  C   LIG    1       28.677  17.885 188.072  0.00  0.00    +0.105 C 
ATOM     13  N   LIG    1       27.839  16.672 188.037  0.00  0.00    -0.302 NA
ATOM     14  C   LIG    1       27.227  16.291 186.731  0.00  0.00    +0.061 C 
ATOM     15  C   LIG    1       25.838  15.739 187.118  0.00  0.00    +0.020 C 
ATOM     16  C   LIG    1       25.968  15.486 188.619  0.00  0.00    +0.017 C 
ATOM     17  C   LIG    1       26.799  16.687 189.058  0.00  0.00    +0.084 C 
ENDBRANCH  11  14
ENDBRANCH   1  11
BRANCH   4  18
ATOM     18  C   LIG    1       32.291  17.790 183.516  0.00  0.00    +0.058 C 
BRANCH  18  19
ATOM     19  C   LIG    1       32.099  19.163 184.181  0.00  0.00    +0.176 C 
BRANCH  19  20
ATOM     20  S   LIG    1       32.091  19.162 185.958  0.00  0.00    -0.003 S 
ATOM     21  O   LIG    1       31.820  17.837 186.405  0.00  0.00    -0.169 OA
ATOM     22  O   LIG    1       31.210  20.188 186.403  0.00  0.00    -0.169 OA
BRANCH  20  23
ATOM     23  C   LIG    1       33.783  19.600 186.393  0.00  0.00    +0.088 A 
ATOM     24  C   LIG    1       34.508  18.822 187.300  0.00  0.00    +0.027 A 
ATOM     25  C   LIG    1       35.815  19.159 187.638  0.00  0.00    +0.002 A 
ATOM     26  C   LIG    1       36.410  20.285 187.076  0.00  0.00    +0.000 A 
ATOM     27  C   LIG    1       35.695  21.074 186.183  0.00  0.00    +0.002 A 
ATOM     28  C   LIG    1       34.388  20.735 185.846  0.00  0.00    +0.027 A 
ENDBRANCH  20  23
ENDBRANCH  19  20
ENDBRANCH  18  19
ENDBRANCH   4  18
TORSDOF 6
ENDMDL
MODEL 3
REMARK VINA RESULT:      -8.2     30.051     31.128
REMARK  Name = ZINC000000607845
REMARK                            x       y       z     vdW  Elec       q    Type
REMARK                         _______ _______ _______ _____ _____    ______ ____
ROOT
ATOM      1  C   LIG    1       21.025  48.125 183.753  0.00  0.00    -0.021 A 
ATOM      2  C   LIG    1       20.322  48.448 184.938  0.00  0.00    +0.003 A 
ATOM      3  C   LIG    1       19.988  47.726 186.096  0.00  0.00    +0.014 A 
ATOM      4  C   LIG    1       19.291  48.353 187.120  0.00  0.00    -0.045 A 
ATOM      5  C   LIG    1       18.906  49.712 186.993  0.00  0.00    +0.006 A 
ATOM      6  C   LIG    1       19.217  50.432 185.852  0.00  0.00    +0.026 A 
ATOM      7  C   LIG    1       19.928  49.776 184.839  0.00  0.00    +0.047 A 
ATOM      8  N   LIG    1       20.371  50.243 183.618  0.00  0.00    -0.360 N 
ATOM      9  H   LIG    1       20.222  51.200 183.258  0.00  0.00    +0.165 HD
ATOM     10  C   LIG    1       21.039  49.232 182.964  0.00  0.00    +0.087 A 
ENDROOT
BRANCH   1  11
ATOM     11  C   LIG    1       21.660  46.787 183.422  0.00  0.00    +0.056 C 
BRANCH  11  14
ATOM     12  C   LIG    1       23.000  44.580 184.664  0.00  0.00    +0.105 C 
ATOM     13  N   LIG    1       23.842  45.630 184.061  0.00  0.00    -0.302 NA
ATOM     14  C   LIG    1       23.185  46.916 183.687  0.00  0.00    +0.061 C 
ATOM     15  C   LIG    1       23.894  47.329 182.379  0.00  0.00    +0.020 C 
ATOM     16  C   LIG    1       25.147  46.456 182.369  0.00  0.00    +0.017 C 
ATOM     17  C   LIG    1       24.604  45.141 182.919  0.00  0.00    +0.084 C 
ENDBRANCH  11  14
ENDBRANCH   1  11
BRANCH   4  18
ATOM     18  C   LIG    1       18.963  47.592 188.388  0.00  0.00    +0.058 C 
BRANCH  18  19
ATOM     19  C   LIG    1       20.281  46.936 188.833  0.00  0.00    +0.176 C 
BRANCH  19  20
ATOM     20  S   LIG    1       20.343  46.413 190.530  0.00  0.00    -0.003 S 
ATOM     21  O   LIG    1       19.130  45.732 190.835  0.00  0.00    -0.169 OA
ATOM     22  O   LIG    1       20.671  47.541 191.334  0.00  0.00    -0.169 OA
BRANCH  20  23
ATOM     23  C   LIG    1       21.708  45.239 190.566  0.00  0.00    +0.088 A 
ATOM     24  C   LIG    1       22.419  44.941 189.400  0.00  0.00    +0.027 A 
ATOM     25  C   LIG    1       23.474  44.033 189.426  0.00  0.00    +0.002 A 
ATOM     26  C   LIG    1       23.825  43.408 190.617  0.00  0.00    +0.000 A 
ATOM     27  C   LIG    1       23.117  43.686 191.781  0.00  0.00    +0.002 A 
ATOM     28  C   LIG    1       22.062  44.594 191.754  0.00  0.00    +0.027 A 
ENDBRANCH  20  23
ENDBRANCH  19  20
ENDBRANCH  18  19
ENDBRANCH   4  18
TORSDOF 6
ENDMDL
MODEL 4
REMARK VINA RESULT:      -8.1      3.782      8.456
REMARK  Name = ZINC000000607845
REMARK                            x       y       z     vdW  Elec       q    Type
REMARK                         _______ _______ _______ _____ _____    ______ ____
ROOT
ATOM      1  C   LIG    1       36.069  19.103 186.807  0.00  0.00    -0.021 A 
ATOM      2  C   LIG    1       34.796  19.150 186.191  0.00  0.00    +0.003 A 
ATOM      3  C   LIG    1       33.860  18.168 185.820  0.00  0.00    +0.014 A 
ATOM      4  C   LIG    1       32.658  18.549 185.240  0.00  0.00    -0.045 A 
ATOM      5  C   LIG    1       32.380  19.920 185.009  0.00  0.00    +0.006 A 
ATOM      6  C   LIG    1       33.297  20.897 185.358  0.00  0.00    +0.026 A 
ATOM      7  C   LIG    1       34.498  20.484 185.949  0.00  0.00    +0.047 A 
ATOM      8  N   LIG    1       35.571  21.229 186.396  0.00  0.00    -0.360 N 
ATOM      9  H   LIG    1       35.643  22.258 186.344  0.00  0.00    +0.165 HD
ATOM     10  C   LIG    1       36.523  20.381 186.918  0.00  0.00    +0.087 A 
ENDROOT
BRANCH   1  11
ATOM     11  C   LIG    1       36.798  17.857 187.271  0.00  0.00    +0.056 C 
BRANCH  11  14
ATOM     12  C   LIG    1       36.949  15.101 188.041  0.00  0.00    +0.105 C 
ATOM     13  N   LIG    1       36.578  16.075 189.084  0.00  0.00    -0.302 NA
ATOM     14  C   LIG    1       36.199  17.450 188.645  0.00  0.00    +0.061 C 
ATOM     15  C   LIG    1       36.784  18.365 189.743  0.00  0.00    +0.020 C 
ATOM     16  C   LIG    1       37.071  17.396 190.889  0.00  0.00    +0.017 C 
ATOM     17  C   LIG    1       37.585  16.176 190.132  0.00  0.00    +0.084 C 
ENDBRANCH  11  14
ENDBRANCH   1  11
BRANCH   4  18
ATOM     18  C   LIG    1       31.629  17.499 184.876  0.00  0.00    +0.058 C 
BRANCH  18  19
ATOM     19  C   LIG    1       30.379  18.277 184.433  0.00  0.00    +0.176 C 
BRANCH  19  20
ATOM     20  S   LIG    1       28.937  17.290 184.105  0.00  0.00    -0.003 S 
ATOM     21  O   LIG    1       29.355  15.948 183.875  0.00  0.00    -0.169 OA
ATOM     22  O   LIG    1       28.189  17.921 183.071  0.00  0.00    -0.169 OA
BRANCH  20  23
ATOM     23  C   LIG    1       28.007  17.367 185.645  0.00  0.00    +0.088 A 
ATOM     24  C   LIG    1       28.671  17.392 186.875  0.00  0.00    +0.027 A 
ATOM     25  C   LIG    1       27.953  17.451 188.066  0.00  0.00    +0.002 A 
ATOM     26  C   LIG    1       26.563  17.477 188.040  0.00  0.00    +0.000 A 
ATOM     27  C   LIG    1       25.891  17.439 186.824  0.00  0.00    +0.002 A 
ATOM     28  C   LIG    1       26.610  17.380 185.633  0.00  0.00    +0.027 A 
ENDBRANCH  20  23
ENDBRANCH  19  20
ENDBRANCH  18  19
ENDBRANCH   4  18
TORSDOF 6
ENDMDL
MODEL 5
REMARK VINA RESULT:      -8.1     28.825     29.777
REMARK  Name = ZINC000000607845
REMARK                            x       y       z     vdW  Elec       q    Type
REMARK                         _______ _______ _______ _____ _____    ______ ____
ROOT
ATOM      1  C   LIG    1       26.138  43.402 182.900  0.00  0.00    -0.021 A 
ATOM      2  C   LIG    1       25.989  44.778 182.604  0.00  0.00    +0.003 A 
ATOM      3  C   LIG    1       24.972  45.718 182.845  0.00  0.00    +0.014 A 
ATOM      4  C   LIG    1       25.143  47.034 182.438  0.00  0.00    -0.045 A 
ATOM      5  C   LIG    1       26.331  47.426 181.770  0.00  0.00    +0.006 A 
ATOM      6  C   LIG    1       27.335  46.508 181.515  0.00  0.00    +0.026 A 
ATOM      7  C   LIG    1       27.139  45.190 181.944  0.00  0.00    +0.047 A 
ATOM      8  N   LIG    1       27.961  44.086 181.832  0.00  0.00    -0.360 N 
ATOM      9  H   LIG    1       28.890  44.080 181.380  0.00  0.00    +0.165 HD
ATOM     10  C   LIG    1       27.345  43.003 182.418  0.00  0.00    +0.087 A 
ENDROOT
BRANCH   1  11
ATOM     11  C   LIG    1       25.139  42.528 183.634  0.00  0.00    +0.056 C 
BRANCH  11  14
ATOM     12  C   LIG    1       23.235  43.878 185.295  0.00  0.00    +0.105 C 
ATOM     13  N   LIG    1       24.283  43.091 185.970  0.00  0.00    -0.302 NA
ATOM     14  C   LIG    1       25.446  42.639 185.152  0.00  0.00    +0.061 C 
ATOM     15  C   LIG    1       25.769  41.235 185.708  0.00  0.00    +0.020 C 
ATOM     16  C   LIG    1       25.027  41.208 187.043  0.00  0.00    +0.017 C 
ATOM     17  C   LIG    1       23.740  41.945 186.689  0.00  0.00    +0.084 C 
ENDBRANCH  11  14
ENDBRANCH   1  11
BRANCH   4  18
ATOM     18  C   LIG    1       24.069  48.061 182.731  0.00  0.00    +0.058 C 
BRANCH  18  19
ATOM     19  C   LIG    1       22.807  47.256 183.083  0.00  0.00    +0.176 C 
BRANCH  19  20
ATOM     20  S   LIG    1       22.125  47.562 184.695  0.00  0.00    -0.003 S 
ATOM     21  O   LIG    1       23.176  47.471 185.652  0.00  0.00    -0.169 OA
ATOM     22  O   LIG    1       21.006  46.701 184.879  0.00  0.00    -0.169 OA
BRANCH  20  23
ATOM     23  C   LIG    1       21.555  49.268 184.601  0.00  0.00    +0.088 A 
ATOM     24  C   LIG    1       20.207  49.555 184.366  0.00  0.00    +0.027 A 
ATOM     25  C   LIG    1       19.765  50.872 184.292  0.00  0.00    +0.002 A 
ATOM     26  C   LIG    1       20.669  51.919 184.445  0.00  0.00    +0.000 A 
ATOM     27  C   LIG    1       22.014  51.647 184.666  0.00  0.00    +0.002 A 
ATOM     28  C   LIG    1       22.455  50.329 184.740  0.00  0.00    +0.027 A 
ENDBRANCH  20  23
ENDBRANCH  19  20
ENDBRANCH  18  19
ENDBRANCH   4  18
TORSDOF 6
ENDMDL
MODEL 6
REMARK VINA RESULT:      -7.9      1.979      2.394
REMARK  Name = ZINC000000607845
REMARK                            x       y       z     vdW  Elec       q    Type
REMARK                         _______ _______ _______ _____ _____    ______ ____
ROOT
ATOM      1  C   LIG    1       29.001  17.213 185.604  0.00  0.00    -0.021 A 
ATOM      2  C   LIG    1       30.279  17.739 185.302  0.00  0.00    +0.003 A 
ATOM      3  C   LIG    1       31.132  18.650 185.949  0.00  0.00    +0.014 A 
ATOM      4  C   LIG    1       32.367  18.950 185.391  0.00  0.00    -0.045 A 
ATOM      5  C   LIG    1       32.762  18.352 184.167  0.00  0.00    +0.006 A 
ATOM      6  C   LIG    1       31.927  17.462 183.513  0.00  0.00    +0.026 A 
ATOM      7  C   LIG    1       30.691  17.172 184.103  0.00  0.00    +0.047 A 
ATOM      8  N   LIG    1       29.680  16.331 183.681  0.00  0.00    -0.360 N 
ATOM      9  H   LIG    1       29.695  15.771 182.814  0.00  0.00    +0.165 HD
ATOM     10  C   LIG    1       28.655  16.361 184.602  0.00  0.00    +0.087 A 
ENDROOT
BRANCH   1  11
ATOM     11  C   LIG    1       28.165  17.531 186.829  0.00  0.00    +0.056 C 
BRANCH  11  14
ATOM     12  C   LIG    1       28.303  17.273 189.680  0.00  0.00    +0.105 C 
ATOM     13  N   LIG    1       27.559  16.236 188.942  0.00  0.00    -0.302 NA
ATOM     14  C   LIG    1       27.730  16.181 187.462  0.00  0.00    +0.061 C 
ATOM     15  C   LIG    1       26.326  15.805 186.938  0.00  0.00    +0.020 C 
ATOM     16  C   LIG    1       25.614  15.289 188.187  0.00  0.00    +0.017 C 
ATOM     17  C   LIG    1       26.135  16.249 189.252  0.00  0.00    +0.084 C 
ENDBRANCH  11  14
ENDBRANCH   1  11
BRANCH   4  18
ATOM     18  C   LIG    1       33.308  19.899 186.104  0.00  0.00    +0.058 C 
BRANCH  18  19
ATOM     19  C   LIG    1       34.658  19.167 186.185  0.00  0.00    +0.176 C 
BRANCH  19  20
ATOM     20  S   LIG    1       35.498  19.277 187.748  0.00  0.00    -0.003 S 
ATOM     21  O   LIG    1       35.498  17.986 188.348  0.00  0.00    -0.169 OA
ATOM     22  O   LIG    1       34.914  20.338 188.495  0.00  0.00    -0.169 OA
BRANCH  20  23
ATOM     23  C   LIG    1       37.183  19.722 187.296  0.00  0.00    +0.088 A 
ATOM     24  C   LIG    1       37.744  20.922 187.741  0.00  0.00    +0.027 A 
ATOM     25  C   LIG    1       39.047  21.268 187.393  0.00  0.00    +0.002 A 
ATOM     26  C   LIG    1       39.800  20.420 186.588  0.00  0.00    +0.000 A 
ATOM     27  C   LIG    1       39.249  19.230 186.128  0.00  0.00    +0.002 A 
ATOM     28  C   LIG    1       37.946  18.885 186.477  0.00  0.00    +0.027 A 
ENDBRANCH  20  23
ENDBRANCH  19  20
ENDBRANCH  18  19
ENDBRANCH   4  18
TORSDOF 6
ENDMDL
MODEL 7
REMARK VINA RESULT:      -7.8     33.835     36.162
REMARK  Name = ZINC000000607845
REMARK                            x       y       z     vdW  Elec       q    Type
REMARK                         _______ _______ _______ _____ _____    ______ ____
ROOT
ATOM      1  C   LIG    1       24.899  41.062 212.015  0.00  0.00    -0.021 A 
ATOM      2  C   LIG    1       25.715  42.117 211.539  0.00  0.00    +0.003 A 
ATOM      3  C   LIG    1       25.456  43.294 210.816  0.00  0.00    +0.014 A 
ATOM      4  C   LIG    1       26.499  44.159 210.516  0.00  0.00    -0.045 A 
ATOM      5  C   LIG    1       27.821  43.851 210.924  0.00  0.00    +0.006 A 
ATOM      6  C   LIG    1       28.093  42.690 211.626  0.00  0.00    +0.026 A 
ATOM      7  C   LIG    1       27.020  41.839 211.922  0.00  0.00    +0.047 A 
ATOM      8  N   LIG    1       26.999  40.638 212.603  0.00  0.00    -0.360 N 
ATOM      9  H   LIG    1       27.826  40.169 213.006  0.00  0.00    +0.165 HD
ATOM     10  C   LIG    1       25.704  40.173 212.657  0.00  0.00    +0.087 A 
ENDROOT
BRANCH   1  11
ATOM     11  C   LIG    1       23.396  40.945 211.851  0.00  0.00    +0.056 C 
BRANCH  11  14
ATOM     12  C   LIG    1       21.621  38.712 212.109  0.00  0.00    +0.105 C 
ATOM     13  N   LIG    1       21.987  39.130 210.743  0.00  0.00    -0.302 NA
ATOM     14  C   LIG    1       23.129  40.077 210.592  0.00  0.00    +0.061 C 
ATOM     15  C   LIG    1       22.700  40.994 209.425  0.00  0.00    +0.020 C 
ATOM     16  C   LIG    1       21.555  40.221 208.775  0.00  0.00    +0.017 C 
ATOM     17  C   LIG    1       20.846  39.646 209.997  0.00  0.00    +0.084 C 
ENDBRANCH  11  14
ENDBRANCH   1  11
BRANCH   4  18
ATOM     18  C   LIG    1       26.220  45.449 209.773  0.00  0.00    +0.058 C 
BRANCH  18  19
ATOM     19  C   LIG    1       25.531  45.035 208.462  0.00  0.00    +0.176 C 
BRANCH  19  20
ATOM     20  S   LIG    1       24.064  45.946 208.044  0.00  0.00    -0.003 S 
ATOM     21  O   LIG    1       23.455  45.325 206.917  0.00  0.00    -0.169 OA
ATOM     22  O   LIG    1       24.412  47.320 207.916  0.00  0.00    -0.169 OA
BRANCH  20  23
ATOM     23  C   LIG    1       23.003  45.732 209.484  0.00  0.00    +0.088 A 
ATOM     24  C   LIG    1       22.879  46.750 210.433  0.00  0.00    +0.027 A 
ATOM     25  C   LIG    1       22.060  46.586 211.546  0.00  0.00    +0.002 A 
ATOM     26  C   LIG    1       21.362  45.396 211.727  0.00  0.00    +0.000 A 
ATOM     27  C   LIG    1       21.488  44.371 210.797  0.00  0.00    +0.002 A 
ATOM     28  C   LIG    1       22.307  44.536 209.684  0.00  0.00    +0.027 A 
ENDBRANCH  20  23
ENDBRANCH  19  20
ENDBRANCH  18  19
ENDBRANCH   4  18
TORSDOF 6
ENDMDL
MODEL 8
REMARK VINA RESULT:      -7.8     34.128     36.000
REMARK  Name = ZINC000000607845
REMARK                            x       y       z     vdW  Elec       q    Type
REMARK                         _______ _______ _______ _____ _____    ______ ____
ROOT
ATOM      1  C   LIG    1       23.018  40.002 210.915  0.00  0.00    -0.021 A 
ATOM      2  C   LIG    1       23.689  41.157 210.449  0.00  0.00    +0.003 A 
ATOM      3  C   LIG    1       23.615  41.912 209.265  0.00  0.00    +0.014 A 
ATOM      4  C   LIG    1       24.412  43.039 209.117  0.00  0.00    -0.045 A 
ATOM      5  C   LIG    1       25.306  43.420 210.149  0.00  0.00    +0.006 A 
ATOM      6  C   LIG    1       25.398  42.680 211.316  0.00  0.00    +0.026 A 
ATOM      7  C   LIG    1       24.577  41.553 211.440  0.00  0.00    +0.047 A 
ATOM      8  N   LIG    1       24.456  40.650 212.479  0.00  0.00    -0.360 N 
ATOM      9  H   LIG    1       24.996  40.681 213.359  0.00  0.00    +0.165 HD
ATOM     10  C   LIG    1       23.504  39.710 212.151  0.00  0.00    +0.087 A 
ENDROOT
BRANCH   1  11
ATOM     11  C   LIG    1       21.942  39.228 210.176  0.00  0.00    +0.056 C 
BRANCH  11  14
ATOM     12  C   LIG    1       19.929  40.475 208.564  0.00  0.00    +0.105 C 
ATOM     13  N   LIG    1       19.511  39.940 209.873  0.00  0.00    -0.302 NA
ATOM     14  C   LIG    1       20.582  39.569 210.843  0.00  0.00    +0.061 C 
ATOM     15  C   LIG    1       20.029  38.306 211.541  0.00  0.00    +0.020 C 
ATOM     16  C   LIG    1       18.543  38.333 211.188  0.00  0.00    +0.017 C 
ATOM     17  C   LIG    1       18.584  38.823 209.744  0.00  0.00    +0.084 C 
ENDBRANCH  11  14
ENDBRANCH   1  11
BRANCH   4  18
ATOM     18  C   LIG    1       24.308  43.878 207.861  0.00  0.00    +0.058 C 
BRANCH  18  19
ATOM     19  C   LIG    1       25.319  45.023 208.039  0.00  0.00    +0.176 C 
BRANCH  19  20
ATOM     20  S   LIG    1       24.643  46.665 207.962  0.00  0.00    -0.003 S 
ATOM     21  O   LIG    1       23.269  46.567 207.601  0.00  0.00    -0.169 OA
ATOM     22  O   LIG    1       25.479  47.453 207.121  0.00  0.00    -0.169 OA
BRANCH  20  23
ATOM     23  C   LIG    1       24.771  47.260 209.657  0.00  0.00    +0.088 A 
ATOM     24  C   LIG    1       25.735  48.210 210.005  0.00  0.00    +0.027 A 
ATOM     25  C   LIG    1       25.836  48.671 211.314  0.00  0.00    +0.002 A 
ATOM     26  C   LIG    1       24.978  48.180 212.293  0.00  0.00    +0.000 A 
ATOM     27  C   LIG    1       24.024  47.225 211.962  0.00  0.00    +0.002 A 
ATOM     28  C   LIG    1       23.924  46.765 210.652  0.00  0.00    +0.027 A 
ENDBRANCH  20  23
ENDBRANCH  19  20
ENDBRANCH  18  19
ENDBRANCH   4  18
TORSDOF 6
ENDMDL
MODEL 9
REMARK VINA RESULT:      -7.8     32.599     33.832
REMARK  Name = ZINC000000607845
REMARK                            x       y       z     vdW  Elec       q    Type
REMARK                         _______ _______ _______ _____ _____    ______ ____
ROOT
ATOM      1  C   LIG    1       23.318  48.821 183.495  0.00  0.00    -0.021 A 
ATOM      2  C   LIG    1       22.492  49.943 183.251  0.00  0.00    +0.003 A 
ATOM      3  C   LIG    1       21.760  50.386 182.135  0.00  0.00    +0.014 A 
ATOM      4  C   LIG    1       21.008  51.550 182.225  0.00  0.00    -0.045 A 
ATOM      5  C   LIG    1       20.989  52.296 183.430  0.00  0.00    +0.006 A 
ATOM      6  C   LIG    1       21.714  51.879 184.533  0.00  0.00    +0.026 A 
ATOM      7  C   LIG    1       22.457  50.697 184.416  0.00  0.00    +0.047 A 
ATOM      8  N   LIG    1       23.254  50.053 185.342  0.00  0.00    -0.360 N 
ATOM      9  H   LIG    1       23.430  50.380 186.306  0.00  0.00    +0.165 HD
ATOM     10  C   LIG    1       23.773  48.911 184.773  0.00  0.00    +0.087 A 
ENDROOT
BRANCH   1  11
ATOM     11  C   LIG    1       23.635  47.708 182.514  0.00  0.00    +0.056 C 
BRANCH  11  14
ATOM     12  C   LIG    1       24.103  45.008 183.349  0.00  0.00    +0.105 C 
ATOM     13  N   LIG    1       25.272  45.792 182.909  0.00  0.00    -0.302 NA
ATOM     14  C   LIG    1       25.102  47.267 182.765  0.00  0.00    +0.061 C 
ATOM     15  C   LIG    1       25.957  47.621 181.527  0.00  0.00    +0.020 C 
ATOM     16  C   LIG    1       26.840  46.388 181.349  0.00  0.00    +0.017 C 
ATOM     17  C   LIG    1       25.866  45.264 181.687  0.00  0.00    +0.084 C 
ENDBRANCH  11  14
ENDBRANCH   1  11
BRANCH   4  18
ATOM     18  C   LIG    1       20.185  52.010 181.040  0.00  0.00    +0.058 C 
BRANCH  18  19
ATOM     19  C   LIG    1       18.737  52.103 181.548  0.00  0.00    +0.176 C 
BRANCH  19  20
ATOM     20  S   LIG    1       17.885  50.554 181.727  0.00  0.00    -0.003 S 
ATOM     21  O   LIG    1       18.431  49.631 180.791  0.00  0.00    -0.169 OA
ATOM     22  O   LIG    1       16.485  50.802 181.650  0.00  0.00    -0.169 OA
BRANCH  20  23
ATOM     23  C   LIG    1       18.305  50.026 183.397  0.00  0.00    +0.088 A 
ATOM     24  C   LIG    1       18.070  50.866 184.488  0.00  0.00    +0.027 A 
ATOM     25  C   LIG    1       18.395  50.460 185.779  0.00  0.00    +0.002 A 
ATOM     26  C   LIG    1       18.966  49.210 185.992  0.00  0.00    +0.000 A 
ATOM     27  C   LIG    1       19.217  48.370 184.913  0.00  0.00    +0.002 A 
ATOM     28  C   LIG    1       18.891  48.777 183.622  0.00  0.00    +0.027 A 
ENDBRANCH  20  23
ENDBRANCH  19  20
ENDBRANCH  18  19
ENDBRANCH   4  18
TORSDOF 6
ENDMDL
