REMARK VINA RESULT:      -7.2      5.263     10.847
REMARK  Name = ZINC000000538650
REMARK                            x       y       z     vdW  Elec       q    Type
REMARK                         _______ _______ _______ _____ _____    ______ ____
ROOT
ATOM      1  C   LIG    1       26.070  44.092 210.239  0.00  0.00    +0.076 A 
ATOM      2  N   LIG    1       24.992  43.297 210.674  0.00  0.00    -0.213 N 
ATOM      3  N   LIG    1       23.660  43.507 210.450  0.00  0.00    -0.172 NA
ATOM      4  C   LIG    1       23.062  42.504 211.036  0.00  0.00    +0.148 A 
ATOM      5  C   LIG    1       23.959  41.635 211.656  0.00  0.00    +0.087 A 
ATOM      6  C   LIG    1       25.210  42.150 211.411  0.00  0.00    +0.167 A 
ATOM      7  N   LIG    1       26.492  41.720 211.731  0.00  0.00    -0.235 NA
ATOM      8  C   LIG    1       27.499  42.435 211.335  0.00  0.00    +0.115 A 
ATOM      9  C   LIG    1       27.321  43.633 210.590  0.00  0.00    +0.048 A 
ENDROOT
BRANCH   1  12
ATOM     10  C   LIG    1       25.464  47.704 209.344  0.00  0.00    +0.037 A 
ATOM     11  C   LIG    1       25.764  46.567 210.094  0.00  0.00    +0.033 A 
ATOM     12  C   LIG    1       25.804  45.309 209.480  0.00  0.00    +0.002 A 
ATOM     13  C   LIG    1       25.546  45.223 208.103  0.00  0.00    +0.010 A 
ATOM     14  C   LIG    1       25.254  46.362 207.358  0.00  0.00    +0.002 A 
ATOM     15  C   LIG    1       25.208  47.607 207.975  0.00  0.00    +0.023 A 
BRANCH  10  18
ATOM     16  C   LIG    1       24.218  50.737 211.334  0.00  0.00    +0.109 C 
ATOM     17  C   LIG    1       24.264  49.365 210.704  0.00  0.00    +0.216 C 
ATOM     18  N   LIG    1       25.395  48.969 209.994  0.00  0.00    -0.275 N 
ATOM     19  C   LIG    1       26.553  49.869 209.841  0.00  0.00    +0.138 C 
ATOM     20  O   LIG    1       23.319  48.612 210.814  0.00  0.00    -0.276 OA
ENDBRANCH  10  18
ENDBRANCH   1  12
BRANCH   5  21
ATOM     21  C   LIG    1       23.576  40.433 212.359  0.00  0.00    +0.205 C 
ATOM     22  O   LIG    1       24.400  39.932 213.124  0.00  0.00    -0.286 OA
BRANCH  21  23
ATOM     23  C   LIG    1       22.295  39.763 212.182  0.00  0.00    +0.060 A 
ATOM     24  S   LIG    1       21.026  39.943 213.358  0.00  0.00    -0.093 S 
ATOM     25  C   LIG    1       19.987  38.897 212.467  0.00  0.00    +0.046 A 
ATOM     26  C   LIG    1       20.588  38.431 211.331  0.00  0.00    +0.008 A 
ATOM     27  C   LIG    1       21.892  38.915 211.169  0.00  0.00    +0.019 A 
ENDBRANCH  21  23
ENDBRANCH   5  21
TORSDOF 4
