REMARK VINA RESULT:      -6.9     13.554     15.027
REMARK  Name = ZINC000022625070
REMARK                            x       y       z     vdW  Elec       q    Type
REMARK                         _______ _______ _______ _____ _____    ______ ____
ROOT
ATOM      1  C   LIG    1       22.368  43.259 209.927  0.00  0.00    +0.171 A 
ATOM      2  C   LIG    1       23.252  44.057 209.200  0.00  0.00    +0.032 A 
ATOM      3  C   LIG    1       24.160  43.788 208.013  0.00  0.00    +0.046 C 
ATOM      4  C   LIG    1       24.303  45.106 207.202  0.00  0.00    +0.040 C 
ATOM      5  C   LIG    1       24.627  46.300 208.113  0.00  0.00    -0.036 A 
ATOM      6  C   LIG    1       24.043  46.383 209.389  0.00  0.00    +0.027 A 
ATOM      7  C   LIG    1       24.259  47.508 210.188  0.00  0.00    +0.057 A 
ATOM      8  C   LIG    1       25.075  48.535 209.715  0.00  0.00    +0.121 A 
ATOM      9  C   LIG    1       25.671  48.452 208.459  0.00  0.00    +0.046 A 
ATOM     10  C   LIG    1       25.440  47.337 207.658  0.00  0.00    +0.008 A 
ATOM     11  C   LIG    1       23.256  45.250 209.809  0.00  0.00    +0.171 A 
ATOM     12  O   LIG    1       22.419  45.179 210.852  0.00  0.00    -0.354 OA
ATOM     13  N   LIG    1       21.878  43.967 210.921  0.00  0.00    -0.073 NA
ENDROOT
BRANCH   1  16
ATOM     14  N   LIG    1       20.781  41.580 209.169  0.00  0.00    -0.307 N 
ATOM     15  H   LIG    1       20.144  42.382 209.082  0.00  0.00    +0.149 HD
ATOM     16  C   LIG    1       22.026  41.857 209.664  0.00  0.00    +0.266 C 
ATOM     17  O   LIG    1       22.783  40.908 209.865  0.00  0.00    -0.268 OA
BRANCH  14  18
ATOM     18  C   LIG    1       20.226  40.244 209.071  0.00  0.00    +0.070 C 
ATOM     19  C   LIG    1       19.324  40.245 207.837  0.00  0.00    +0.028 C 
BRANCH  18  20
ATOM     20  C   LIG    1       19.476  39.940 210.381  0.00  0.00    +0.023 C 
BRANCH  20  21
ATOM     21  C   LIG    1       19.162  38.451 210.649  0.00  0.00    +0.017 C 
BRANCH  21  22
ATOM     22  C   LIG    1       17.630  38.292 210.491  0.00  0.00    +0.084 C 
BRANCH  22  23
ATOM     23  N   LIG    1       17.324  37.070 209.700  0.00  0.00    -0.303 NA
BRANCH  23  25
ATOM     24  C   LIG    1       16.969  35.285 211.228  0.00  0.00    +0.020 C 
ATOM     25  C   LIG    1       16.241  36.250 210.288  0.00  0.00    +0.081 C 
ENDBRANCH  23  25
BRANCH  23  26
ATOM     26  C   LIG    1       17.147  37.332 208.259  0.00  0.00    +0.081 C 
ATOM     27  C   LIG    1       17.223  35.956 207.587  0.00  0.00    +0.020 C 
ENDBRANCH  23  26
ENDBRANCH  22  23
ENDBRANCH  21  22
ENDBRANCH  20  21
ENDBRANCH  18  20
ENDBRANCH  14  18
ENDBRANCH   1  16
BRANCH   8  28
ATOM     28  O   LIG    1       25.331  49.665 210.457  0.00  0.00    -0.495 OA
ATOM     29  C   LIG    1       24.343  50.403 211.214  0.00  0.00    +0.277 C 
ENDBRANCH   8  28
TORSDOF 9
