REMARK VINA RESULT:      -5.9     26.353     28.949
REMARK  Name = ZINC000000623135
REMARK                            x       y       z     vdW  Elec       q    Type
REMARK                         _______ _______ _______ _____ _____    ______ ____
ROOT
ATOM      1  N   LIG    1       36.679  18.752 190.837  0.00  0.00    -0.299 N 
ATOM      2  H   LIG    1       35.689  18.535 190.680  0.00  0.00    +0.150 HD
ENDROOT
BRANCH   1   5
ATOM      3  C   LIG    1       37.652  19.045 193.691  0.00  0.00    +0.409 C 
ATOM      4  N   LIG    1       36.943  18.087 193.024  0.00  0.00    -0.212 N 
ATOM      5  C   LIG    1       37.305  17.757 191.650  0.00  0.00    +0.235 C 
ATOM      6  S   LIG    1       36.331  16.246 191.237  0.00  0.00    -0.086 S 
ATOM      7  C   LIG    1       35.440  16.387 192.717  0.00  0.00    +0.006 C 
ATOM      8  C   LIG    1       34.270  15.621 193.248  0.00  0.00    +0.044 C 
ATOM      9  C   LIG    1       34.287  16.101 194.739  0.00  0.00    +0.011 C 
ATOM     10  C   LIG    1       35.068  17.456 194.805  0.00  0.00    +0.052 C 
ATOM     11  C   LIG    1       35.845  17.345 193.532  0.00  0.00    +0.029 C 
ATOM     12  O   LIG    1       37.345  19.442 194.811  0.00  0.00    -0.226 OA
BRANCH   3  13
ATOM     13  O   LIG    1       38.740  19.520 193.042  0.00  0.00    -0.450 OA
BRANCH  13  15
ATOM     14  C   LIG    1       38.505  21.709 192.183  0.00  0.00    +0.048 C 
ATOM     15  C   LIG    1       39.226  20.868 193.236  0.00  0.00    +0.230 C 
ENDBRANCH  13  15
ENDBRANCH   3  13
ENDBRANCH   1   5
BRANCH   1  16
ATOM     16  C   LIG    1       37.330  19.126 189.698  0.00  0.00    +0.136 C 
ATOM     17  S   LIG    1       38.738  18.421 189.127  0.00  0.00    -0.018 S 
BRANCH  16  18
ATOM     18  N   LIG    1       36.704  20.153 189.012  0.00  0.00    -0.297 N 
ATOM     19  H   LIG    1       37.099  21.084 189.195  0.00  0.00    +0.154 HD
BRANCH  18  20
ATOM     20  C   LIG    1       35.795  20.019 187.941  0.00  0.00    +0.033 A 
ATOM     21  C   LIG    1       35.820  20.918 186.871  0.00  0.00    +0.027 A 
ATOM     22  C   LIG    1       34.907  20.770 185.832  0.00  0.00    +0.047 A 
ATOM     23  C   LIG    1       33.987  19.723 185.865  0.00  0.00    +0.120 A 
ATOM     24  C   LIG    1       33.970  18.816 186.929  0.00  0.00    +0.047 A 
ATOM     25  C   LIG    1       34.880  18.965 187.970  0.00  0.00    +0.027 A 
BRANCH  23  26
ATOM     26  O   LIG    1       33.104  19.630 184.807  0.00  0.00    -0.495 OA
ATOM     27  C   LIG    1       31.664  19.598 184.928  0.00  0.00    +0.277 C 
ENDBRANCH  23  26
ENDBRANCH  18  20
ENDBRANCH  16  18
ENDBRANCH   1  16
TORSDOF 7
