REMARK VINA RESULT:      -9.2     21.783     24.321
REMARK  Name = ZINC000000603769
REMARK                            x       y       z     vdW  Elec       q    Type
REMARK                         _______ _______ _______ _____ _____    ______ ____
ROOT
ATOM      1  C   LIG    1       28.626  21.683 207.689  0.00  0.00    +0.139 A 
ATOM      2  N   LIG    1       28.326  22.399 208.799  0.00  0.00    -0.336 N 
ATOM      3  H   LIG    1       28.149  22.021 209.742  0.00  0.00    +0.167 HD
ATOM      4  C   LIG    1       28.293  23.705 208.493  0.00  0.00    +0.093 A 
ATOM      5  C   LIG    1       28.545  23.755 207.144  0.00  0.00    +0.099 A 
ATOM      6  N   LIG    1       28.772  22.500 206.670  0.00  0.00    -0.227 NA
ENDROOT
BRANCH   5   7
ATOM      7  C   LIG    1       28.553  24.937 206.292  0.00  0.00    +0.006 A 
ATOM      8  C   LIG    1       27.629  25.974 206.509  0.00  0.00    +0.059 A 
ATOM      9  C   LIG    1       27.650  27.076 205.669  0.00  0.00    +0.167 A 
ATOM     10  O   LIG    1       26.838  28.156 205.715  0.00  0.00    -0.453 OA
ATOM     11  C   LIG    1       27.273  29.045 204.613  0.00  0.00    +0.466 C 
ATOM     12  O   LIG    1       28.393  28.330 203.955  0.00  0.00    -0.453 OA
ATOM     13  C   LIG    1       28.557  27.180 204.643  0.00  0.00    +0.166 A 
ATOM     14  C   LIG    1       29.494  26.185 204.409  0.00  0.00    +0.050 A 
ATOM     15  C   LIG    1       29.490  25.065 205.243  0.00  0.00    +0.014 A 
ENDBRANCH   5   7
BRANCH   1  19
ATOM     16  C   LIG    1       29.021  17.410 207.671  0.00  0.00    +0.037 A 
ATOM     17  C   LIG    1       29.390  18.182 206.557  0.00  0.00    +0.014 A 
ATOM     18  C   LIG    1       29.255  19.564 206.576  0.00  0.00    +0.012 A 
ATOM     19  C   LIG    1       28.754  20.229 207.704  0.00  0.00    +0.017 A 
ATOM     20  C   LIG    1       28.392  19.456 208.820  0.00  0.00    +0.012 A 
ATOM     21  C   LIG    1       28.526  18.073 208.802  0.00  0.00    +0.014 A 
BRANCH  16  25
ATOM     22  N   LIG    1       29.310  15.249 206.535  0.00  0.00    -0.325 N 
ATOM     23  H   LIG    1       29.257  15.701 205.616  0.00  0.00    +0.145 HD
ATOM     24  H   LIG    1       29.333  14.224 206.612  0.00  0.00    +0.145 HD
ATOM     25  C   LIG    1       29.142  15.949 207.678  0.00  0.00    +0.242 C 
ATOM     26  O   LIG    1       29.091  15.261 208.683  0.00  0.00    -0.270 OA
ENDBRANCH  16  25
ENDBRANCH   1  19
BRANCH   4  27
ATOM     27  C   LIG    1       28.055  24.694 209.524  0.00  0.00    +0.089 A 
ATOM     28  N   LIG    1       26.914  24.585 210.234  0.00  0.00    -0.253 NA
ATOM     29  C   LIG    1       26.637  25.464 211.194  0.00  0.00    +0.111 A 
ATOM     30  C   LIG    1       27.502  26.509 211.505  0.00  0.00    +0.020 A 
ATOM     31  C   LIG    1       28.693  26.640 210.806  0.00  0.00    +0.004 A 
ATOM     32  C   LIG    1       28.968  25.717 209.811  0.00  0.00    +0.030 A 
ENDBRANCH   4  27
TORSDOF 4
