REMARK VINA RESULT:      -7.3     28.295     30.585
REMARK  Name = ZINC000006087400
REMARK                            x       y       z     vdW  Elec       q    Type
REMARK                         _______ _______ _______ _____ _____    ______ ____
ROOT
ATOM      1  C   LIG    1       17.926  40.142 210.367  0.00  0.00    +0.214 C 
ENDROOT
BRANCH   1   7
ATOM      2  C   LIG    1       14.712  37.215 211.440  0.00  0.00    +0.010 C 
ATOM      3  C   LIG    1       14.949  36.458 210.114  0.00  0.00    +0.018 C 
ATOM      4  C   LIG    1       15.830  37.278 209.114  0.00  0.00    +0.115 C 
ATOM      5  C   LIG    1       17.111  37.853 209.730  0.00  0.00    +0.247 C 
ATOM      6  O   LIG    1       18.106  37.297 210.160  0.00  0.00    -0.273 OA
ATOM      7  N   LIG    1       16.997  39.210 209.721  0.00  0.00    -0.215 N 
ATOM      8  C   LIG    1       15.803  39.585 209.166  0.00  0.00    +0.310 C 
ATOM      9  O   LIG    1       15.393  40.728 209.081  0.00  0.00    -0.252 OA
ATOM     10  N   LIG    1       15.134  38.499 208.734  0.00  0.00    -0.285 N 
ATOM     11  H   LIG    1       14.123  38.568 208.569  0.00  0.00    +0.151 HD
ATOM     12  C   LIG    1       16.096  36.478 207.813  0.00  0.00    +0.035 C 
ATOM     13  C   LIG    1       16.746  35.125 208.155  0.00  0.00    +0.003 C 
ATOM     14  C   LIG    1       15.881  34.315 209.128  0.00  0.00    +0.000 C 
ATOM     15  C   LIG    1       15.625  35.107 210.417  0.00  0.00    +0.006 C 
ENDBRANCH   1   7
BRANCH   1  16
ATOM     16  C   LIG    1       19.067  40.408 209.382  0.00  0.00    +0.238 C 
ATOM     17  N   LIG    1       20.382  40.184 209.762  0.00  0.00    -0.267 N 
ATOM     18  O   LIG    1       18.846  40.813 208.250  0.00  0.00    -0.274 OA
BRANCH  17  19
ATOM     19  C   LIG    1       20.740  39.842 211.087  0.00  0.00    +0.010 C 
ATOM     20  C   LIG    1       20.510  40.925 212.125  0.00  0.00    +0.051 C 
ATOM     21  C   LIG    1       21.382  40.588 213.355  0.00  0.00    +0.006 C 
ATOM     22  C   LIG    1       21.058  39.139 213.775  0.00  0.00    +0.004 C 
ATOM     23  C   LIG    1       21.680  38.183 212.734  0.00  0.00    +0.029 C 
ATOM     24  C   LIG    1       21.235  38.618 211.351  0.00  0.00    -0.008 C 
ENDBRANCH  17  19
BRANCH  17  25
ATOM     25  C   LIG    1       21.464  40.375 208.778  0.00  0.00    +0.187 C 
BRANCH  25  26
ATOM     26  C   LIG    1       22.270  41.558 209.277  0.00  0.00    +0.122 A 
ATOM     27  O   LIG    1       21.666  42.756 209.517  0.00  0.00    -0.466 OA
ATOM     28  C   LIG    1       22.628  43.615 209.938  0.00  0.00    +0.195 A 
ATOM     29  C   LIG    1       23.821  42.980 209.967  0.00  0.00    +0.041 A 
ATOM     30  C   LIG    1       23.592  41.667 209.543  0.00  0.00    +0.046 A 
ENDBRANCH  25  26
ENDBRANCH  17  25
ENDBRANCH   1  16
TORSDOF 5
