REMARK VINA RESULT:      -8.0      0.000      0.000
REMARK  Name = ZINC000006087399
REMARK                            x       y       z     vdW  Elec       q    Type
REMARK                         _______ _______ _______ _____ _____    ______ ____
ROOT
ATOM      1  C   LIG    1       22.946  45.906 184.772  0.00  0.00    +0.214 C 
ENDROOT
BRANCH   1   7
ATOM      2  C   LIG    1       18.556  48.632 182.979  0.00  0.00    +0.010 C 
ATOM      3  C   LIG    1       19.797  49.396 183.496  0.00  0.00    +0.018 C 
ATOM      4  C   LIG    1       20.452  48.707 184.741  0.00  0.00    +0.115 C 
ATOM      5  C   LIG    1       20.863  47.255 184.485  0.00  0.00    +0.247 C 
ATOM      6  O   LIG    1       20.187  46.276 184.220  0.00  0.00    -0.273 OA
ATOM      7  N   LIG    1       22.208  47.166 184.663  0.00  0.00    -0.215 N 
ATOM      8  C   LIG    1       22.725  48.378 185.020  0.00  0.00    +0.310 C 
ATOM      9  O   LIG    1       23.885  48.586 185.328  0.00  0.00    -0.252 OA
ATOM     10  N   LIG    1       21.756  49.313 184.993  0.00  0.00    -0.285 N 
ATOM     11  H   LIG    1       21.887  50.187 185.513  0.00  0.00    +0.151 HD
ATOM     12  C   LIG    1       19.581  48.800 186.021  0.00  0.00    +0.035 C 
ATOM     13  C   LIG    1       19.237  50.276 186.314  0.00  0.00    +0.003 C 
ATOM     14  C   LIG    1       18.551  50.950 185.119  0.00  0.00    +0.000 C 
ATOM     15  C   LIG    1       19.421  50.850 183.857  0.00  0.00    +0.006 C 
ENDBRANCH   1   7
BRANCH   1  16
ATOM     16  C   LIG    1       23.329  45.429 183.368  0.00  0.00    +0.238 C 
ATOM     17  N   LIG    1       23.977  44.213 183.249  0.00  0.00    -0.267 N 
ATOM     18  O   LIG    1       23.089  46.067 182.350  0.00  0.00    -0.274 OA
BRANCH  17  19
ATOM     19  C   LIG    1       24.272  43.414 184.377  0.00  0.00    +0.010 C 
ATOM     20  C   LIG    1       25.705  42.922 184.462  0.00  0.00    +0.051 C 
ATOM     21  C   LIG    1       25.733  41.734 185.449  0.00  0.00    +0.006 C 
ATOM     22  C   LIG    1       25.065  42.194 186.761  0.00  0.00    +0.004 C 
ATOM     23  C   LIG    1       23.542  42.303 186.515  0.00  0.00    +0.029 C 
ATOM     24  C   LIG    1       23.316  43.165 185.288  0.00  0.00    -0.008 C 
ENDBRANCH  17  19
BRANCH  17  25
ATOM     25  C   LIG    1       24.498  43.784 181.941  0.00  0.00    +0.187 C 
BRANCH  25  26
ATOM     26  C   LIG    1       23.498  42.776 181.410  0.00  0.00    +0.122 A 
ATOM     27  O   LIG    1       23.884  41.499 181.136  0.00  0.00    -0.466 OA
ATOM     28  C   LIG    1       22.794  40.839 180.668  0.00  0.00    +0.195 A 
ATOM     29  C   LIG    1       21.735  41.677 180.645  0.00  0.00    +0.041 A 
ATOM     30  C   LIG    1       22.184  42.914 181.119  0.00  0.00    +0.046 A 
ENDBRANCH  25  26
ENDBRANCH  17  25
ENDBRANCH   1  16
TORSDOF 5
