REMARK VINA RESULT:      -9.1     26.541     27.556
REMARK  Name = ZINC000049483826
REMARK                            x       y       z     vdW  Elec       q    Type
REMARK                         _______ _______ _______ _____ _____    ______ ____
ROOT
ATOM      1  N   LIG    1       25.577  42.842 184.158  0.00  0.00    -0.175 NA
ATOM      2  C   LIG    1       25.949  42.082 185.356  0.00  0.00    +0.123 C 
ATOM      3  C   LIG    1       24.452  42.152 185.749  0.00  0.00    +0.109 C 
ATOM      4  C   LIG    1       24.312  43.314 184.732  0.00  0.00    +0.123 C 
ENDROOT
BRANCH   3   5
ATOM      5  C   LIG    1       24.244  42.598 187.176  0.00  0.00    +0.233 A 
ATOM      6  O   LIG    1       25.245  42.524 188.027  0.00  0.00    -0.337 OA
ATOM      7  N   LIG    1       24.823  42.965 189.192  0.00  0.00    -0.056 NA
ATOM      8  C   LIG    1       23.588  43.290 189.009  0.00  0.00    +0.209 A 
ATOM      9  N   LIG    1       23.199  43.064 187.728  0.00  0.00    -0.191 NA
BRANCH   8  10
ATOM     10  C   LIG    1       22.722  43.832 190.047  0.00  0.00    +0.060 A 
ATOM     11  S   LIG    1       21.185  44.556 189.674  0.00  0.00    -0.093 S 
ATOM     12  C   LIG    1       20.884  44.884 191.341  0.00  0.00    +0.046 A 
ATOM     13  C   LIG    1       21.911  44.459 192.135  0.00  0.00    +0.008 A 
ATOM     14  C   LIG    1       22.950  43.864 191.405  0.00  0.00    +0.019 A 
ENDBRANCH   8  10
ENDBRANCH   3   5
BRANCH   1  15
ATOM     15  S   LIG    1       25.690  42.209 182.646  0.00  0.00    +0.061 S 
ATOM     16  O   LIG    1       26.601  41.118 182.670  0.00  0.00    -0.153 OA
ATOM     17  O   LIG    1       24.372  41.919 182.196  0.00  0.00    -0.153 OA
BRANCH  15  20
ATOM     18  C   LIG    1       25.548  42.475 179.457  0.00  0.00    +0.046 C 
ATOM     19  C   LIG    1       26.262  43.576 180.226  0.00  0.00    -0.024 A 
ATOM     20  C   LIG    1       26.375  43.549 181.630  0.00  0.00    +0.110 A 
ATOM     21  C   LIG    1       27.039  44.598 182.274  0.00  0.00    +0.048 A 
ATOM     22  C   LIG    1       27.585  45.651 181.544  0.00  0.00    +0.043 A 
ATOM     23 CL   LIG    1       28.409  46.934 182.364  0.00  0.00    -0.083 Cl
ATOM     24  C   LIG    1       27.471  45.673 180.157  0.00  0.00    +0.020 A 
ATOM     25  C   LIG    1       26.811  44.640 179.506  0.00  0.00    +0.007 A 
ENDBRANCH  15  20
ENDBRANCH   1  15
TORSDOF 4
