REMARK VINA RESULT:      -8.6      1.340      2.356
REMARK  Name = ZINC000000603759
REMARK                            x       y       z     vdW  Elec       q    Type
REMARK                         _______ _______ _______ _____ _____    ______ ____
ROOT
ATOM      1  C   LIG    1       23.505  43.778 183.567  0.00  0.00    +0.139 A 
ATOM      2  C   LIG    1       24.739  43.529 182.907  0.00  0.00    +0.050 A 
ATOM      3  C   LIG    1       26.060  43.253 183.303  0.00  0.00    +0.015 A 
ATOM      4  C   LIG    1       26.998  43.070 182.306  0.00  0.00    +0.020 A 
ATOM      5  C   LIG    1       26.625  43.161 180.944  0.00  0.00    +0.113 A 
ATOM      6  N   LIG    1       25.389  43.417 180.562  0.00  0.00    -0.236 NA
ATOM      7  C   LIG    1       24.481  43.587 181.557  0.00  0.00    +0.159 A 
ATOM      8  N   LIG    1       23.146  43.852 181.445  0.00  0.00    -0.241 N 
ATOM      9  N   LIG    1       22.549  43.974 182.663  0.00  0.00    -0.165 NA
ENDROOT
BRANCH   1  14
ATOM     10  C   LIG    1       22.727  44.988 186.916  0.00  0.00    +0.128 A 
ATOM     11  C   LIG    1       22.921  43.866 187.732  0.00  0.00    +0.040 A 
ATOM     12  C   LIG    1       23.325  42.711 187.080  0.00  0.00    +0.125 A 
ATOM     13  N   LIG    1       23.506  42.697 185.768  0.00  0.00    -0.234 NA
ATOM     14  C   LIG    1       23.297  43.818 185.026  0.00  0.00    +0.183 A 
ATOM     15  N   LIG    1       22.906  44.962 185.617  0.00  0.00    -0.211 NA
BRANCH  11  16
ATOM     16  C   LIG    1       22.712  43.891 189.172  0.00  0.00    -0.010 A 
ATOM     17  C   LIG    1       23.742  43.602 190.068  0.00  0.00    +0.028 A 
ATOM     18  C   LIG    1       23.509  43.639 191.437  0.00  0.00    +0.111 A 
ATOM     19  N   LIG    1       22.312  43.946 191.934  0.00  0.00    -0.263 NA
ATOM     20  C   LIG    1       21.307  44.229 191.105  0.00  0.00    +0.111 A 
ATOM     21  C   LIG    1       21.471  44.212 189.727  0.00  0.00    +0.028 A 
ENDBRANCH  11  16
BRANCH  10  22
ATOM     22  N   LIG    1       22.356  46.202 187.388  0.00  0.00    -0.343 N 
ATOM     23  H   LIG    1       21.531  46.235 187.998  0.00  0.00    +0.144 HD
ATOM     24  H   LIG    1       23.151  46.811 187.628  0.00  0.00    +0.144 HD
ENDBRANCH  10  22
ENDBRANCH   1  14
BRANCH   8  25
ATOM     25  C   LIG    1       22.418  43.981 180.186  0.00  0.00    +0.183 C 
BRANCH  25  26
ATOM     26  C   LIG    1       22.308  42.587 179.581  0.00  0.00    +0.009 A 
ATOM     27  C   LIG    1       21.607  41.571 180.229  0.00  0.00    +0.128 A 
ATOM     28  F   LIG    1       21.017  41.814 181.425  0.00  0.00    -0.205 F 
ATOM     29  C   LIG    1       21.492  40.290 179.704  0.00  0.00    +0.039 A 
ATOM     30  C   LIG    1       22.103  40.006 178.486  0.00  0.00    +0.003 A 
ATOM     31  C   LIG    1       22.816  41.001 177.819  0.00  0.00    +0.000 A 
ATOM     32  C   LIG    1       22.920  42.282 178.362  0.00  0.00    +0.008 A 
ENDBRANCH  25  26
ENDBRANCH   8  25
TORSDOF 5
