REMARK VINA RESULT:      -8.5     29.230     30.997
REMARK  Name = ZINC000006086011
REMARK                            x       y       z     vdW  Elec       q    Type
REMARK                         _______ _______ _______ _____ _____    ______ ____
ROOT
ATOM      1  N   LIG    1       22.838  46.082 183.955  0.00  0.00    -0.286 NA
ATOM      2  C   LIG    1       23.905  46.391 182.979  0.00  0.00    +0.106 C 
ENDROOT
BRANCH   1   3
ATOM      3  C   LIG    1       23.194  44.936 184.882  0.00  0.00    +0.140 C 
ATOM      4  C   LIG    1       22.641  43.600 184.332  0.00  0.00    +0.034 C 
BRANCH   3   7
ATOM      5  N   LIG    1       22.947  44.274 187.222  0.00  0.00    -0.281 N 
ATOM      6  H   LIG    1       23.555  43.524 186.851  0.00  0.00    +0.155 HD
ATOM      7  C   LIG    1       22.631  45.227 186.290  0.00  0.00    +0.234 C 
ATOM      8  O   LIG    1       21.998  46.222 186.589  0.00  0.00    -0.274 OA
BRANCH   5  10
ATOM      9  C   LIG    1       23.697  43.688 189.421  0.00  0.00    +0.141 A 
ATOM     10  C   LIG    1       22.667  44.186 188.611  0.00  0.00    +0.076 A 
ATOM     11  C   LIG    1       21.446  44.552 189.180  0.00  0.00    +0.027 A 
ATOM     12  C   LIG    1       21.266  44.430 190.555  0.00  0.00    +0.002 A 
ATOM     13  C   LIG    1       22.293  43.940 191.362  0.00  0.00    +0.004 A 
ATOM     14  C   LIG    1       23.511  43.566 190.798  0.00  0.00    +0.047 A 
BRANCH   9  16
ATOM     15  C   LIG    1       25.176  42.053 188.197  0.00  0.00    +0.277 C 
ATOM     16  O   LIG    1       24.900  43.337 188.811  0.00  0.00    -0.493 OA
ENDBRANCH   9  16
ENDBRANCH   5  10
ENDBRANCH   3   7
ENDBRANCH   1   3
BRANCH   1  17
ATOM     17  C   LIG    1       21.493  45.925 183.277  0.00  0.00    +0.181 C 
BRANCH  17  18
ATOM     18  C   LIG    1       20.790  47.277 183.197  0.00  0.00    +0.231 C 
ATOM     19  N   LIG    1       21.080  48.183 184.187  0.00  0.00    -0.284 N 
ATOM     20  H   LIG    1       21.778  47.878 184.882  0.00  0.00    +0.155 HD
ATOM     21  O   LIG    1       19.988  47.541 182.321  0.00  0.00    -0.274 OA
BRANCH  19  22
ATOM     22  C   LIG    1       20.499  49.456 184.390  0.00  0.00    +0.041 A 
ATOM     23  C   LIG    1       19.508  49.592 185.412  0.00  0.00    +0.003 A 
ATOM     24  C   LIG    1       19.016  48.497 186.176  0.00  0.00    +0.010 A 
ATOM     25  C   LIG    1       18.088  48.691 187.171  0.00  0.00    +0.001 A 
ATOM     26  C   LIG    1       17.597  49.983 187.443  0.00  0.00    +0.001 A 
ATOM     27  C   LIG    1       18.038  51.058 186.709  0.00  0.00    +0.008 A 
ATOM     28  C   LIG    1       18.993  50.888 185.675  0.00  0.00    -0.016 A 
ATOM     29  C   LIG    1       19.442  51.989 184.901  0.00  0.00    +0.008 A 
ATOM     30  C   LIG    1       20.381  51.819 183.910  0.00  0.00    +0.002 A 
ATOM     31  C   LIG    1       20.921  50.546 183.652  0.00  0.00    +0.024 A 
ENDBRANCH  19  22
ENDBRANCH  17  18
ENDBRANCH   1  17
TORSDOF 7
