MODEL 1
REMARK VINA RESULT:      -7.0      0.000      0.000
REMARK  Name = ZINC000000622877
REMARK                            x       y       z     vdW  Elec       q    Type
REMARK                         _______ _______ _______ _____ _____    ______ ____
ROOT
ATOM      1  O   LIG    1       29.807  22.321 207.009  0.00  0.00    -0.274 OA
ATOM      2  C   LIG    1       28.663  22.362 207.434  0.00  0.00    +0.235 C 
ATOM      3  N   LIG    1       27.782  23.273 206.936  0.00  0.00    -0.219 N 
ATOM      4  H   LIG    1       26.773  23.203 207.146  0.00  0.00    +0.176 HD
ENDROOT
BRANCH   3   5
ATOM      5  N   LIG    1       28.167  24.223 205.876  0.00  0.00    -0.217 N 
ATOM      6  C   LIG    1       28.730  25.481 206.151  0.00  0.00    +0.079 A 
ATOM      7  C   LIG    1       29.155  26.069 205.005  0.00  0.00    +0.078 A 
ATOM      8  S   LIG    1       28.836  25.121 203.589  0.00  0.00    -0.033 S 
ATOM      9  C   LIG    1       28.112  23.867 204.547  0.00  0.00    +0.308 A 
ATOM     10  O   LIG    1       27.596  22.807 204.131  0.00  0.00    -0.258 OA
BRANCH   6  11
ATOM     11  C   LIG    1       28.806  26.011 207.505  0.00  0.00    +0.001 A 
ATOM     12  C   LIG    1       29.978  25.887 208.264  0.00  0.00    +0.010 A 
ATOM     13  C   LIG    1       30.043  26.388 209.559  0.00  0.00    +0.001 A 
ATOM     14  C   LIG    1       28.938  27.022 210.118  0.00  0.00    +0.000 A 
ATOM     15  C   LIG    1       27.768  27.154 209.376  0.00  0.00    +0.001 A 
ATOM     16  C   LIG    1       27.704  26.653 208.081  0.00  0.00    +0.010 A 
ENDBRANCH   6  11
ENDBRANCH   3   5
BRANCH   2  17
ATOM     17  C   LIG    1       28.172  21.413 208.510  0.00  0.00    +0.132 C 
BRANCH  17  18
ATOM     18  C   LIG    1       27.598  22.245 209.649  0.00  0.00    -0.039 A 
ATOM     19  C   LIG    1       28.432  23.047 210.429  0.00  0.00    +0.005 A 
ATOM     20  C   LIG    1       27.901  23.819 211.458  0.00  0.00    +0.015 A 
ATOM     21  C   LIG    1       26.533  23.797 211.716  0.00  0.00    +0.018 A 
ATOM     22 BR   LIG    1       25.814  24.851 213.113  0.00  0.00    -0.050 Br
ATOM     23  C   LIG    1       25.698  22.996 210.942  0.00  0.00    +0.015 A 
ATOM     24  C   LIG    1       26.228  22.222 209.915  0.00  0.00    +0.005 A 
ENDBRANCH  17  18
ENDBRANCH   2  17
TORSDOF 4
ENDMDL
MODEL 2
REMARK VINA RESULT:      -6.5      1.934      4.091
REMARK  Name = ZINC000000622877
REMARK                            x       y       z     vdW  Elec       q    Type
REMARK                         _______ _______ _______ _____ _____    ______ ____
ROOT
ATOM      1  O   LIG    1       29.695  25.675 209.013  0.00  0.00    -0.274 OA
ATOM      2  C   LIG    1       28.497  25.906 209.045  0.00  0.00    +0.235 C 
ATOM      3  N   LIG    1       27.646  25.206 208.244  0.00  0.00    -0.219 N 
ATOM      4  H   LIG    1       26.624  25.255 208.387  0.00  0.00    +0.176 HD
ENDROOT
BRANCH   3   5
ATOM      5  N   LIG    1       28.131  24.155 207.330  0.00  0.00    -0.217 N 
ATOM      6  C   LIG    1       28.130  22.793 207.672  0.00  0.00    +0.079 A 
ATOM      7  C   LIG    1       28.451  22.035 206.594  0.00  0.00    +0.078 A 
ATOM      8  S   LIG    1       28.797  22.971 205.176  0.00  0.00    -0.033 S 
ATOM      9  C   LIG    1       28.493  24.449 206.035  0.00  0.00    +0.308 A 
ATOM     10  O   LIG    1       28.594  25.612 205.587  0.00  0.00    -0.258 OA
BRANCH   6  11
ATOM     11  C   LIG    1       27.820  22.336 209.020  0.00  0.00    +0.001 A 
ATOM     12  C   LIG    1       26.512  21.983 209.379  0.00  0.00    +0.010 A 
ATOM     13  C   LIG    1       26.219  21.557 210.670  0.00  0.00    +0.001 A 
ATOM     14  C   LIG    1       27.229  21.474 211.623  0.00  0.00    +0.000 A 
ATOM     15  C   LIG    1       28.533  21.820 211.280  0.00  0.00    +0.001 A 
ATOM     16  C   LIG    1       28.825  22.246 209.990  0.00  0.00    +0.010 A 
ENDBRANCH   6  11
ENDBRANCH   3   5
BRANCH   2  17
ATOM     17  C   LIG    1       27.905  26.955 209.966  0.00  0.00    +0.132 C 
BRANCH  17  18
ATOM     18  C   LIG    1       27.292  26.242 211.164  0.00  0.00    -0.039 A 
ATOM     19  C   LIG    1       25.919  25.999 211.216  0.00  0.00    +0.005 A 
ATOM     20  C   LIG    1       25.366  25.331 212.304  0.00  0.00    +0.015 A 
ATOM     21  C   LIG    1       26.179  24.900 213.349  0.00  0.00    +0.018 A 
ATOM     22 BR   LIG    1       25.424  23.989 214.825  0.00  0.00    -0.050 Br
ATOM     23  C   LIG    1       27.549  25.143 213.302  0.00  0.00    +0.015 A 
ATOM     24  C   LIG    1       28.103  25.813 212.216  0.00  0.00    +0.005 A 
ENDBRANCH  17  18
ENDBRANCH   2  17
TORSDOF 4
ENDMDL
MODEL 3
REMARK VINA RESULT:      -6.3      1.755      2.098
REMARK  Name = ZINC000000622877
REMARK                            x       y       z     vdW  Elec       q    Type
REMARK                         _______ _______ _______ _____ _____    ______ ____
ROOT
ATOM      1  O   LIG    1       29.910  24.700 206.997  0.00  0.00    -0.274 OA
ATOM      2  C   LIG    1       28.919  24.004 207.153  0.00  0.00    +0.235 C 
ATOM      3  N   LIG    1       27.681  24.520 206.922  0.00  0.00    -0.219 N 
ATOM      4  H   LIG    1       26.852  23.904 206.869  0.00  0.00    +0.176 HD
ENDROOT
BRANCH   3   5
ATOM      5  N   LIG    1       27.492  25.912 206.474  0.00  0.00    -0.217 N 
ATOM      6  C   LIG    1       27.530  27.005 207.357  0.00  0.00    +0.079 A 
ATOM      7  C   LIG    1       27.512  28.172 206.664  0.00  0.00    +0.078 A 
ATOM      8  S   LIG    1       27.407  27.949 204.948  0.00  0.00    -0.033 S 
ATOM      9  C   LIG    1       27.397  26.223 205.136  0.00  0.00    +0.308 A 
ATOM     10  O   LIG    1       27.302  25.369 204.228  0.00  0.00    -0.258 OA
BRANCH   6  11
ATOM     11  C   LIG    1       27.576  26.828 208.801  0.00  0.00    +0.001 A 
ATOM     12  C   LIG    1       28.583  27.427 209.569  0.00  0.00    +0.010 A 
ATOM     13  C   LIG    1       28.629  27.248 210.948  0.00  0.00    +0.001 A 
ATOM     14  C   LIG    1       27.667  26.468 211.581  0.00  0.00    +0.000 A 
ATOM     15  C   LIG    1       26.660  25.868 210.832  0.00  0.00    +0.001 A 
ATOM     16  C   LIG    1       26.615  26.047 209.454  0.00  0.00    +0.010 A 
ENDBRANCH   6  11
ENDBRANCH   3   5
BRANCH   2  17
ATOM     17  C   LIG    1       29.016  22.556 207.592  0.00  0.00    +0.132 C 
BRANCH  17  18
ATOM     18  C   LIG    1       28.343  22.429 208.953  0.00  0.00    -0.039 A 
ATOM     19  C   LIG    1       28.981  22.893 210.103  0.00  0.00    +0.005 A 
ATOM     20  C   LIG    1       28.356  22.792 211.342  0.00  0.00    +0.015 A 
ATOM     21  C   LIG    1       27.088  22.224 211.442  0.00  0.00    +0.018 A 
ATOM     22 BR   LIG    1       26.239  22.090 213.127  0.00  0.00    -0.050 Br
ATOM     23  C   LIG    1       26.449  21.757 210.297  0.00  0.00    +0.015 A 
ATOM     24  C   LIG    1       27.075  21.856 209.058  0.00  0.00    +0.005 A 
ENDBRANCH  17  18
ENDBRANCH   2  17
TORSDOF 4
ENDMDL
MODEL 4
REMARK VINA RESULT:      -6.3     34.282     36.555
REMARK  Name = ZINC000000622877
REMARK                            x       y       z     vdW  Elec       q    Type
REMARK                         _______ _______ _______ _____ _____    ______ ____
ROOT
ATOM      1  O   LIG    1       19.360  47.621 184.742  0.00  0.00    -0.274 OA
ATOM      2  C   LIG    1       20.441  48.127 185.001  0.00  0.00    +0.235 C 
ATOM      3  N   LIG    1       20.501  49.255 185.761  0.00  0.00    -0.219 N 
ATOM      4  H   LIG    1       21.402  49.589 186.141  0.00  0.00    +0.176 HD
ENDROOT
BRANCH   3   5
ATOM      5  N   LIG    1       19.285  49.892 186.300  0.00  0.00    -0.217 N 
ATOM      6  C   LIG    1       18.525  50.817 185.565  0.00  0.00    +0.079 A 
ATOM      7  C   LIG    1       17.371  51.105 186.219  0.00  0.00    +0.078 A 
ATOM      8  S   LIG    1       17.224  50.288 187.742  0.00  0.00    -0.033 S 
ATOM      9  C   LIG    1       18.759  49.510 187.513  0.00  0.00    +0.308 A 
ATOM     10  O   LIG    1       19.335  48.736 188.308  0.00  0.00    -0.258 OA
BRANCH   6  11
ATOM     11  C   LIG    1       18.981  51.351 184.290  0.00  0.00    +0.001 A 
ATOM     12  C   LIG    1       18.538  50.803 183.078  0.00  0.00    +0.010 A 
ATOM     13  C   LIG    1       18.984  51.311 181.863  0.00  0.00    +0.001 A 
ATOM     14  C   LIG    1       19.879  52.375 181.838  0.00  0.00    +0.000 A 
ATOM     15  C   LIG    1       20.326  52.931 183.033  0.00  0.00    +0.001 A 
ATOM     16  C   LIG    1       19.881  52.423 184.247  0.00  0.00    +0.010 A 
ENDBRANCH   6  11
ENDBRANCH   3   5
BRANCH   2  17
ATOM     17  C   LIG    1       21.745  47.532 184.506  0.00  0.00    +0.132 C 
BRANCH  17  18
ATOM     18  C   LIG    1       22.126  48.237 183.211  0.00  0.00    -0.039 A 
ATOM     19  C   LIG    1       22.013  47.577 181.987  0.00  0.00    +0.005 A 
ATOM     20  C   LIG    1       22.345  48.230 180.805  0.00  0.00    +0.015 A 
ATOM     21  C   LIG    1       22.793  49.548 180.835  0.00  0.00    +0.018 A 
ATOM     22 BR   LIG    1       23.241  50.435 179.225  0.00  0.00    -0.050 Br
ATOM     23  C   LIG    1       22.910  50.209 182.054  0.00  0.00    +0.015 A 
ATOM     24  C   LIG    1       22.581  49.556 183.237  0.00  0.00    +0.005 A 
ENDBRANCH  17  18
ENDBRANCH   2  17
TORSDOF 4
ENDMDL
MODEL 5
REMARK VINA RESULT:      -6.3      4.548      6.946
REMARK  Name = ZINC000000622877
REMARK                            x       y       z     vdW  Elec       q    Type
REMARK                         _______ _______ _______ _____ _____    ______ ____
ROOT
ATOM      1  O   LIG    1       25.814  25.987 211.691  0.00  0.00    -0.274 OA
ATOM      2  C   LIG    1       27.018  26.096 211.863  0.00  0.00    +0.235 C 
ATOM      3  N   LIG    1       27.672  25.228 212.682  0.00  0.00    -0.219 N 
ATOM      4  H   LIG    1       28.705  25.188 212.695  0.00  0.00    +0.176 HD
ENDROOT
BRANCH   3   5
ATOM      5  N   LIG    1       26.964  24.134 213.375  0.00  0.00    -0.217 N 
ATOM      6  C   LIG    1       26.825  22.851 212.821  0.00  0.00    +0.079 A 
ATOM      7  C   LIG    1       26.299  21.997 213.736  0.00  0.00    +0.078 A 
ATOM      8  S   LIG    1       25.934  22.756 215.252  0.00  0.00    -0.033 S 
ATOM      9  C   LIG    1       26.513  24.285 214.667  0.00  0.00    +0.308 A 
ATOM     10  O   LIG    1       26.518  25.372 215.283  0.00  0.00    -0.258 OA
BRANCH   6  11
ATOM     11  C   LIG    1       27.210  22.557 211.448  0.00  0.00    +0.001 A 
ATOM     12  C   LIG    1       28.556  22.393 211.096  0.00  0.00    +0.010 A 
ATOM     13  C   LIG    1       28.919  22.121 209.781  0.00  0.00    +0.001 A 
ATOM     14  C   LIG    1       27.943  22.007 208.797  0.00  0.00    +0.000 A 
ATOM     15  C   LIG    1       26.601  22.165 209.133  0.00  0.00    +0.001 A 
ATOM     16  C   LIG    1       26.239  22.437 210.447  0.00  0.00    +0.010 A 
ENDBRANCH   6  11
ENDBRANCH   3   5
BRANCH   2  17
ATOM     17  C   LIG    1       27.832  27.177 211.178  0.00  0.00    +0.132 C 
BRANCH  17  18
ATOM     18  C   LIG    1       28.425  26.588 209.905  0.00  0.00    -0.039 A 
ATOM     19  C   LIG    1       29.807  26.567 209.713  0.00  0.00    +0.005 A 
ATOM     20  C   LIG    1       30.346  26.012 208.556  0.00  0.00    +0.015 A 
ATOM     21  C   LIG    1       29.509  25.474 207.582  0.00  0.00    +0.018 A 
ATOM     22 BR   LIG    1       30.245  24.717 206.012  0.00  0.00    -0.050 Br
ATOM     23  C   LIG    1       28.130  25.496 207.769  0.00  0.00    +0.015 A 
ATOM     24  C   LIG    1       27.590  26.053 208.924  0.00  0.00    +0.005 A 
ENDBRANCH  17  18
ENDBRANCH   2  17
TORSDOF 4
ENDMDL
MODEL 6
REMARK VINA RESULT:      -6.2     19.086     21.303
REMARK  Name = ZINC000000622877
REMARK                            x       y       z     vdW  Elec       q    Type
REMARK                         _______ _______ _______ _____ _____    ______ ____
ROOT
ATOM      1  O   LIG    1       24.442  42.090 210.304  0.00  0.00    -0.274 OA
ATOM      2  C   LIG    1       24.171  42.694 209.278  0.00  0.00    +0.235 C 
ATOM      3  N   LIG    1       22.870  42.909 208.937  0.00  0.00    -0.219 N 
ATOM      4  H   LIG    1       22.623  43.568 208.181  0.00  0.00    +0.176 HD
ENDROOT
BRANCH   3   5
ATOM      5  N   LIG    1       21.759  42.436 209.785  0.00  0.00    -0.217 N 
ATOM      6  C   LIG    1       21.251  43.187 210.858  0.00  0.00    +0.079 A 
ATOM      7  C   LIG    1       20.125  42.610 211.347  0.00  0.00    +0.078 A 
ATOM      8  S   LIG    1       19.703  41.136 210.537  0.00  0.00    -0.033 S 
ATOM      9  C   LIG    1       21.074  41.281 209.482  0.00  0.00    +0.308 A 
ATOM     10  O   LIG    1       21.425  40.477 208.591  0.00  0.00    -0.258 OA
BRANCH   6  11
ATOM     11  C   LIG    1       21.902  44.403 211.325  0.00  0.00    +0.001 A 
ATOM     12  C   LIG    1       21.718  45.622 210.657  0.00  0.00    +0.010 A 
ATOM     13  C   LIG    1       22.349  46.779 211.102  0.00  0.00    +0.001 A 
ATOM     14  C   LIG    1       23.173  46.737 212.221  0.00  0.00    +0.000 A 
ATOM     15  C   LIG    1       23.364  45.535 212.895  0.00  0.00    +0.001 A 
ATOM     16  C   LIG    1       22.733  44.379 212.450  0.00  0.00    +0.010 A 
ENDBRANCH   6  11
ENDBRANCH   3   5
BRANCH   2  17
ATOM     17  C   LIG    1       25.246  43.233 208.355  0.00  0.00    +0.132 C 
BRANCH  17  18
ATOM     18  C   LIG    1       25.380  44.729 208.606  0.00  0.00    -0.039 A 
ATOM     19  C   LIG    1       25.018  45.647 207.621  0.00  0.00    +0.005 A 
ATOM     20  C   LIG    1       25.125  47.013 207.861  0.00  0.00    +0.015 A 
ATOM     21  C   LIG    1       25.595  47.474 209.088  0.00  0.00    +0.018 A 
ATOM     22 BR   LIG    1       25.736  49.332 209.414  0.00  0.00    -0.050 Br
ATOM     23  C   LIG    1       25.959  46.561 210.074  0.00  0.00    +0.015 A 
ATOM     24  C   LIG    1       25.855  45.194 209.833  0.00  0.00    +0.005 A 
ENDBRANCH  17  18
ENDBRANCH   2  17
TORSDOF 4
ENDMDL
MODEL 7
REMARK VINA RESULT:      -6.2      5.215      7.593
REMARK  Name = ZINC000000622877
REMARK                            x       y       z     vdW  Elec       q    Type
REMARK                         _______ _______ _______ _____ _____    ______ ____
ROOT
ATOM      1  O   LIG    1       28.522  24.539 212.724  0.00  0.00    -0.274 OA
ATOM      2  C   LIG    1       27.520  25.198 212.494  0.00  0.00    +0.235 C 
ATOM      3  N   LIG    1       26.318  24.809 213.000  0.00  0.00    -0.219 N 
ATOM      4  H   LIG    1       25.502  25.443 212.973  0.00  0.00    +0.176 HD
ENDROOT
BRANCH   3   5
ATOM      5  N   LIG    1       26.184  23.603 213.839  0.00  0.00    -0.217 N 
ATOM      6  C   LIG    1       26.071  23.661 215.238  0.00  0.00    +0.079 A 
ATOM      7  C   LIG    1       25.778  22.434 215.739  0.00  0.00    +0.078 A 
ATOM      8  S   LIG    1       25.680  21.202 214.522  0.00  0.00    -0.033 S 
ATOM      9  C   LIG    1       26.032  22.357 213.274  0.00  0.00    +0.308 A 
ATOM     10  O   LIG    1       26.154  22.127 212.051  0.00  0.00    -0.258 OA
BRANCH   6  11
ATOM     11  C   LIG    1       26.261  24.901 215.976  0.00  0.00    +0.001 A 
ATOM     12  C   LIG    1       27.539  25.447 216.154  0.00  0.00    +0.010 A 
ATOM     13  C   LIG    1       27.716  26.627 216.868  0.00  0.00    +0.001 A 
ATOM     14  C   LIG    1       26.618  27.283 217.414  0.00  0.00    +0.000 A 
ATOM     15  C   LIG    1       25.342  26.754 217.244  0.00  0.00    +0.001 A 
ATOM     16  C   LIG    1       25.166  25.574 216.531  0.00  0.00    +0.010 A 
ENDBRANCH   6  11
ENDBRANCH   3   5
BRANCH   2  17
ATOM     17  C   LIG    1       27.564  26.462 211.658  0.00  0.00    +0.132 C 
BRANCH  17  18
ATOM     18  C   LIG    1       28.210  26.124 210.321  0.00  0.00    -0.039 A 
ATOM     19  C   LIG    1       29.495  26.576 210.021  0.00  0.00    +0.005 A 
ATOM     20  C   LIG    1       30.088  26.249 208.805  0.00  0.00    +0.015 A 
ATOM     21  C   LIG    1       29.402  25.468 207.879  0.00  0.00    +0.018 A 
ATOM     22 BR   LIG    1       30.212  25.023 206.228  0.00  0.00    -0.050 Br
ATOM     23  C   LIG    1       28.118  25.017 208.173  0.00  0.00    +0.015 A 
ATOM     24  C   LIG    1       27.523  25.345 209.387  0.00  0.00    +0.005 A 
ENDBRANCH  17  18
ENDBRANCH   2  17
TORSDOF 4
ENDMDL
MODEL 8
REMARK VINA RESULT:      -6.1     20.422     22.489
REMARK  Name = ZINC000000622877
REMARK                            x       y       z     vdW  Elec       q    Type
REMARK                         _______ _______ _______ _____ _____    ______ ____
ROOT
ATOM      1  O   LIG    1       23.935  47.080 207.939  0.00  0.00    -0.274 OA
ATOM      2  C   LIG    1       24.878  46.549 208.504  0.00  0.00    +0.235 C 
ATOM      3  N   LIG    1       25.353  47.068 209.670  0.00  0.00    -0.219 N 
ATOM      4  H   LIG    1       26.020  46.536 210.253  0.00  0.00    +0.176 HD
ENDROOT
BRANCH   3   5
ATOM      5  N   LIG    1       24.751  48.264 210.288  0.00  0.00    -0.217 N 
ATOM      6  C   LIG    1       23.693  48.191 211.210  0.00  0.00    +0.079 A 
ATOM      7  C   LIG    1       23.456  49.411 211.755  0.00  0.00    +0.078 A 
ATOM      8  S   LIG    1       24.485  50.655 211.123  0.00  0.00    -0.033 S 
ATOM      9  C   LIG    1       25.287  49.516 210.087  0.00  0.00    +0.308 A 
ATOM     10  O   LIG    1       26.197  49.759 209.264  0.00  0.00    -0.258 OA
BRANCH   6  11
ATOM     11  C   LIG    1       22.994  46.943 211.484  0.00  0.00    +0.001 A 
ATOM     12  C   LIG    1       23.565  45.962 212.306  0.00  0.00    +0.010 A 
ATOM     13  C   LIG    1       22.898  44.768 212.558  0.00  0.00    +0.001 A 
ATOM     14  C   LIG    1       21.649  44.535 211.993  0.00  0.00    +0.000 A 
ATOM     15  C   LIG    1       21.068  45.501 211.176  0.00  0.00    +0.001 A 
ATOM     16  C   LIG    1       21.736  46.694 210.925  0.00  0.00    +0.010 A 
ENDBRANCH   6  11
ENDBRANCH   3   5
BRANCH   2  17
ATOM     17  C   LIG    1       25.549  45.306 207.954  0.00  0.00    +0.132 C 
BRANCH  17  18
ATOM     18  C   LIG    1       25.075  44.111 208.771  0.00  0.00    -0.039 A 
ATOM     19  C   LIG    1       25.785  43.700 209.899  0.00  0.00    +0.005 A 
ATOM     20  C   LIG    1       25.338  42.619 210.653  0.00  0.00    +0.015 A 
ATOM     21  C   LIG    1       24.180  41.940 210.286  0.00  0.00    +0.018 A 
ATOM     22 BR   LIG    1       23.573  40.473 211.315  0.00  0.00    -0.050 Br
ATOM     23  C   LIG    1       23.470  42.345 209.159  0.00  0.00    +0.015 A 
ATOM     24  C   LIG    1       23.917  43.425 208.403  0.00  0.00    +0.005 A 
ENDBRANCH  17  18
ENDBRANCH   2  17
TORSDOF 4
ENDMDL
MODEL 9
REMARK VINA RESULT:      -6.1      2.414      4.842
REMARK  Name = ZINC000000622877
REMARK                            x       y       z     vdW  Elec       q    Type
REMARK                         _______ _______ _______ _____ _____    ______ ____
ROOT
ATOM      1  O   LIG    1       28.004  22.420 204.951  0.00  0.00    -0.274 OA
ATOM      2  C   LIG    1       28.946  22.962 205.508  0.00  0.00    +0.235 C 
ATOM      3  N   LIG    1       29.765  22.239 206.320  0.00  0.00    -0.219 N 
ATOM      4  H   LIG    1       30.663  22.630 206.650  0.00  0.00    +0.176 HD
ENDROOT
BRANCH   3   5
ATOM      5  N   LIG    1       29.555  20.797 206.548  0.00  0.00    -0.217 N 
ATOM      6  C   LIG    1       28.718  20.303 207.563  0.00  0.00    +0.079 A 
ATOM      7  C   LIG    1       28.562  18.961 207.434  0.00  0.00    +0.078 A 
ATOM      8  S   LIG    1       29.460  18.290 206.111  0.00  0.00    -0.033 S 
ATOM      9  C   LIG    1       30.073  19.858 205.686  0.00  0.00    +0.308 A 
ATOM     10  O   LIG    1       30.873  20.126 204.763  0.00  0.00    -0.258 OA
BRANCH   6  11
ATOM     11  C   LIG    1       28.141  21.173 208.578  0.00  0.00    +0.001 A 
ATOM     12  C   LIG    1       26.764  21.163 208.838  0.00  0.00    +0.010 A 
ATOM     13  C   LIG    1       26.216  22.002 209.803  0.00  0.00    +0.001 A 
ATOM     14  C   LIG    1       27.036  22.864 210.523  0.00  0.00    +0.000 A 
ATOM     15  C   LIG    1       28.405  22.883 210.277  0.00  0.00    +0.001 A 
ATOM     16  C   LIG    1       28.952  22.045 209.313  0.00  0.00    +0.010 A 
ENDBRANCH   6  11
ENDBRANCH   3   5
BRANCH   2  17
ATOM     17  C   LIG    1       29.251  24.435 205.319  0.00  0.00    +0.132 C 
BRANCH  17  18
ATOM     18  C   LIG    1       29.046  25.136 206.655  0.00  0.00    -0.039 A 
ATOM     19  C   LIG    1       27.760  25.426 207.111  0.00  0.00    +0.005 A 
ATOM     20  C   LIG    1       27.575  26.050 208.341  0.00  0.00    +0.015 A 
ATOM     21  C   LIG    1       28.674  26.390 209.126  0.00  0.00    +0.018 A 
ATOM     22 BR   LIG    1       28.421  27.236 210.799  0.00  0.00    -0.050 Br
ATOM     23  C   LIG    1       29.959  26.105 208.673  0.00  0.00    +0.015 A 
ATOM     24  C   LIG    1       30.145  25.483 207.442  0.00  0.00    +0.005 A 
ENDBRANCH  17  18
ENDBRANCH   2  17
TORSDOF 4
ENDMDL
