MODEL 1
REMARK VINA RESULT:      -8.0      0.000      0.000
REMARK  Name = ZINC000006087399
REMARK                            x       y       z     vdW  Elec       q    Type
REMARK                         _______ _______ _______ _____ _____    ______ ____
ROOT
ATOM      1  C   LIG    1       22.946  45.906 184.772  0.00  0.00    +0.214 C 
ENDROOT
BRANCH   1   7
ATOM      2  C   LIG    1       18.556  48.632 182.979  0.00  0.00    +0.010 C 
ATOM      3  C   LIG    1       19.797  49.396 183.496  0.00  0.00    +0.018 C 
ATOM      4  C   LIG    1       20.452  48.707 184.741  0.00  0.00    +0.115 C 
ATOM      5  C   LIG    1       20.863  47.255 184.485  0.00  0.00    +0.247 C 
ATOM      6  O   LIG    1       20.187  46.276 184.220  0.00  0.00    -0.273 OA
ATOM      7  N   LIG    1       22.208  47.166 184.663  0.00  0.00    -0.215 N 
ATOM      8  C   LIG    1       22.725  48.378 185.020  0.00  0.00    +0.310 C 
ATOM      9  O   LIG    1       23.885  48.586 185.328  0.00  0.00    -0.252 OA
ATOM     10  N   LIG    1       21.756  49.313 184.993  0.00  0.00    -0.285 N 
ATOM     11  H   LIG    1       21.887  50.187 185.513  0.00  0.00    +0.151 HD
ATOM     12  C   LIG    1       19.581  48.800 186.021  0.00  0.00    +0.035 C 
ATOM     13  C   LIG    1       19.237  50.276 186.314  0.00  0.00    +0.003 C 
ATOM     14  C   LIG    1       18.551  50.950 185.119  0.00  0.00    +0.000 C 
ATOM     15  C   LIG    1       19.421  50.850 183.857  0.00  0.00    +0.006 C 
ENDBRANCH   1   7
BRANCH   1  16
ATOM     16  C   LIG    1       23.329  45.429 183.368  0.00  0.00    +0.238 C 
ATOM     17  N   LIG    1       23.977  44.213 183.249  0.00  0.00    -0.267 N 
ATOM     18  O   LIG    1       23.089  46.067 182.350  0.00  0.00    -0.274 OA
BRANCH  17  19
ATOM     19  C   LIG    1       24.272  43.414 184.377  0.00  0.00    +0.010 C 
ATOM     20  C   LIG    1       25.705  42.922 184.462  0.00  0.00    +0.051 C 
ATOM     21  C   LIG    1       25.733  41.734 185.449  0.00  0.00    +0.006 C 
ATOM     22  C   LIG    1       25.065  42.194 186.761  0.00  0.00    +0.004 C 
ATOM     23  C   LIG    1       23.542  42.303 186.515  0.00  0.00    +0.029 C 
ATOM     24  C   LIG    1       23.316  43.165 185.288  0.00  0.00    -0.008 C 
ENDBRANCH  17  19
BRANCH  17  25
ATOM     25  C   LIG    1       24.498  43.784 181.941  0.00  0.00    +0.187 C 
BRANCH  25  26
ATOM     26  C   LIG    1       23.498  42.776 181.410  0.00  0.00    +0.122 A 
ATOM     27  O   LIG    1       23.884  41.499 181.136  0.00  0.00    -0.466 OA
ATOM     28  C   LIG    1       22.794  40.839 180.668  0.00  0.00    +0.195 A 
ATOM     29  C   LIG    1       21.735  41.677 180.645  0.00  0.00    +0.041 A 
ATOM     30  C   LIG    1       22.184  42.914 181.119  0.00  0.00    +0.046 A 
ENDBRANCH  25  26
ENDBRANCH  17  25
ENDBRANCH   1  16
TORSDOF 5
ENDMDL
MODEL 2
REMARK VINA RESULT:      -7.9      1.771      3.545
REMARK  Name = ZINC000006087399
REMARK                            x       y       z     vdW  Elec       q    Type
REMARK                         _______ _______ _______ _____ _____    ______ ____
ROOT
ATOM      1  C   LIG    1       22.928  47.524 182.948  0.00  0.00    +0.214 C 
ENDROOT
BRANCH   1   7
ATOM      2  C   LIG    1       18.142  50.143 183.352  0.00  0.00    +0.010 C 
ATOM      3  C   LIG    1       19.359  50.599 184.189  0.00  0.00    +0.018 C 
ATOM      4  C   LIG    1       20.205  49.395 184.726  0.00  0.00    +0.115 C 
ATOM      5  C   LIG    1       20.713  48.469 183.618  0.00  0.00    +0.247 C 
ATOM      6  O   LIG    1       20.103  47.769 182.829  0.00  0.00    -0.273 OA
ATOM      7  N   LIG    1       22.073  48.476 183.662  0.00  0.00    -0.215 N 
ATOM      8  C   LIG    1       22.515  49.281 184.672  0.00  0.00    +0.310 C 
ATOM      9  O   LIG    1       23.678  49.417 185.005  0.00  0.00    -0.252 OA
ATOM     10  N   LIG    1       21.469  49.896 185.256  0.00  0.00    -0.285 N 
ATOM     11  H   LIG    1       21.578  50.284 186.199  0.00  0.00    +0.151 HD
ATOM     12  C   LIG    1       19.475  48.572 185.820  0.00  0.00    +0.035 C 
ATOM     13  C   LIG    1       19.034  49.503 186.968  0.00  0.00    +0.003 C 
ATOM     14  C   LIG    1       18.164  50.661 186.464  0.00  0.00    +0.000 C 
ATOM     15  C   LIG    1       18.897  51.467 185.380  0.00  0.00    +0.006 C 
ENDBRANCH   1   7
BRANCH   1  16
ATOM     16  C   LIG    1       22.990  46.218 183.743  0.00  0.00    +0.238 C 
ATOM     17  N   LIG    1       22.843  45.029 183.050  0.00  0.00    -0.267 N 
ATOM     18  O   LIG    1       23.166  46.172 184.954  0.00  0.00    -0.274 OA
BRANCH  17  19
ATOM     19  C   LIG    1       22.654  45.002 181.650  0.00  0.00    +0.010 C 
ATOM     20  C   LIG    1       23.916  45.169 180.824  0.00  0.00    +0.051 C 
ATOM     21  C   LIG    1       23.490  45.574 179.395  0.00  0.00    +0.006 C 
ATOM     22  C   LIG    1       22.453  44.543 178.903  0.00  0.00    +0.004 C 
ATOM     23  C   LIG    1       21.128  44.791 179.658  0.00  0.00    +0.029 C 
ATOM     24  C   LIG    1       21.422  44.813 181.146  0.00  0.00    -0.008 C 
ENDBRANCH  17  19
BRANCH  17  25
ATOM     25  C   LIG    1       22.744  43.758 183.787  0.00  0.00    +0.187 C 
BRANCH  25  26
ATOM     26  C   LIG    1       24.101  43.096 183.648  0.00  0.00    +0.122 A 
ATOM     27  O   LIG    1       24.319  42.162 182.680  0.00  0.00    -0.466 OA
ATOM     28  C   LIG    1       25.603  41.741 182.806  0.00  0.00    +0.195 A 
ATOM     29  C   LIG    1       26.193  42.393 183.832  0.00  0.00    +0.041 A 
ATOM     30  C   LIG    1       25.235  43.258 184.369  0.00  0.00    +0.046 A 
ENDBRANCH  25  26
ENDBRANCH  17  25
ENDBRANCH   1  16
TORSDOF 5
ENDMDL
MODEL 3
REMARK VINA RESULT:      -7.7     28.982     31.357
REMARK  Name = ZINC000006087399
REMARK                            x       y       z     vdW  Elec       q    Type
REMARK                         _______ _______ _______ _____ _____    ______ ____
ROOT
ATOM      1  C   LIG    1       37.439  20.290 189.849  0.00  0.00    +0.214 C 
ENDROOT
BRANCH   1   7
ATOM      2  C   LIG    1       40.797  20.622 194.154  0.00  0.00    +0.010 C 
ATOM      3  C   LIG    1       39.406  21.296 194.190  0.00  0.00    +0.018 C 
ATOM      4  C   LIG    1       39.018  21.948 192.820  0.00  0.00    +0.115 C 
ATOM      5  C   LIG    1       39.035  20.960 191.651  0.00  0.00    +0.247 C 
ATOM      6  O   LIG    1       39.955  20.328 191.161  0.00  0.00    -0.273 OA
ATOM      7  N   LIG    1       37.779  20.909 191.132  0.00  0.00    -0.215 N 
ATOM      8  C   LIG    1       36.947  21.754 191.808  0.00  0.00    +0.310 C 
ATOM      9  O   LIG    1       35.787  21.983 191.516  0.00  0.00    -0.252 OA
ATOM     10  N   LIG    1       37.604  22.309 192.844  0.00  0.00    -0.285 N 
ATOM     11  H   LIG    1       37.244  23.173 193.261  0.00  0.00    +0.151 HD
ATOM     12  C   LIG    1       39.867  23.200 192.475  0.00  0.00    +0.035 C 
ATOM     13  C   LIG    1       39.781  24.223 193.627  0.00  0.00    +0.003 C 
ATOM     14  C   LIG    1       40.204  23.611 194.968  0.00  0.00    +0.000 C 
ATOM     15  C   LIG    1       39.359  22.371 195.298  0.00  0.00    +0.006 C 
ENDBRANCH   1   7
BRANCH   1  16
ATOM     16  C   LIG    1       37.250  18.785 190.055  0.00  0.00    +0.238 C 
ATOM     17  N   LIG    1       36.651  18.060 189.041  0.00  0.00    -0.267 N 
ATOM     18  O   LIG    1       37.602  18.193 191.068  0.00  0.00    -0.274 OA
BRANCH  17  19
ATOM     19  C   LIG    1       36.233  18.672 187.837  0.00  0.00    +0.010 C 
ATOM     20  C   LIG    1       34.759  19.022 187.768  0.00  0.00    +0.051 C 
ATOM     21  C   LIG    1       34.398  19.234 186.281  0.00  0.00    +0.006 C 
ATOM     22  C   LIG    1       35.395  20.254 185.694  0.00  0.00    +0.004 C 
ATOM     23  C   LIG    1       36.765  19.555 185.539  0.00  0.00    +0.029 C 
ATOM     24  C   LIG    1       37.132  18.922 186.868  0.00  0.00    -0.008 C 
ENDBRANCH  17  19
BRANCH  17  25
ATOM     25  C   LIG    1       36.310  16.644 189.253  0.00  0.00    +0.187 C 
BRANCH  25  26
ATOM     26  C   LIG    1       37.271  15.855 188.385  0.00  0.00    +0.122 A 
ATOM     27  O   LIG    1       38.600  16.153 188.379  0.00  0.00    -0.466 OA
ATOM     28  C   LIG    1       39.201  15.302 187.509  0.00  0.00    +0.195 A 
ATOM     29  C   LIG    1       38.275  14.478 186.971  0.00  0.00    +0.041 A 
ATOM     30  C   LIG    1       37.043  14.831 187.530  0.00  0.00    +0.046 A 
ENDBRANCH  25  26
ENDBRANCH  17  25
ENDBRANCH   1  16
TORSDOF 5
ENDMDL
MODEL 4
REMARK VINA RESULT:      -7.7      1.949      3.832
REMARK  Name = ZINC000006087399
REMARK                            x       y       z     vdW  Elec       q    Type
REMARK                         _______ _______ _______ _____ _____    ______ ____
ROOT
ATOM      1  C   LIG    1       21.523  45.586 183.492  0.00  0.00    +0.214 C 
ENDROOT
BRANCH   1   7
ATOM      2  C   LIG    1       18.781  49.075 186.689  0.00  0.00    +0.010 C 
ATOM      3  C   LIG    1       18.760  49.238 185.152  0.00  0.00    +0.018 C 
ATOM      4  C   LIG    1       20.148  48.928 184.496  0.00  0.00    +0.115 C 
ATOM      5  C   LIG    1       20.672  47.526 184.817  0.00  0.00    +0.247 C 
ATOM      6  O   LIG    1       20.992  47.025 185.880  0.00  0.00    -0.273 OA
ATOM      7  N   LIG    1       20.806  46.854 183.642  0.00  0.00    -0.215 N 
ATOM      8  C   LIG    1       20.449  47.650 182.592  0.00  0.00    +0.310 C 
ATOM      9  O   LIG    1       20.547  47.350 181.416  0.00  0.00    -0.252 OA
ATOM     10  N   LIG    1       19.983  48.828 183.050  0.00  0.00    -0.285 N 
ATOM     11  H   LIG    1       19.961  49.637 182.421  0.00  0.00    +0.151 HD
ATOM     12  C   LIG    1       21.230  49.992 184.821  0.00  0.00    +0.035 C 
ATOM     13  C   LIG    1       20.722  51.393 184.423  0.00  0.00    +0.003 C 
ATOM     14  C   LIG    1       19.386  51.730 185.096  0.00  0.00    +0.000 C 
ATOM     15  C   LIG    1       18.324  50.669 184.769  0.00  0.00    +0.006 C 
ENDBRANCH   1   7
BRANCH   1  16
ATOM     16  C   LIG    1       22.995  45.878 183.191  0.00  0.00    +0.238 C 
ATOM     17  N   LIG    1       23.581  45.226 182.120  0.00  0.00    -0.267 N 
ATOM     18  O   LIG    1       23.677  46.657 183.845  0.00  0.00    -0.274 OA
BRANCH  17  19
ATOM     19  C   LIG    1       22.853  44.325 181.310  0.00  0.00    +0.010 C 
ATOM     20  C   LIG    1       22.342  44.901 180.003  0.00  0.00    +0.051 C 
ATOM     21  C   LIG    1       21.222  43.970 179.488  0.00  0.00    +0.006 C 
ATOM     22  C   LIG    1       21.780  42.532 179.457  0.00  0.00    +0.004 C 
ATOM     23  C   LIG    1       21.899  42.028 180.914  0.00  0.00    +0.029 C 
ATOM     24  C   LIG    1       22.682  43.054 181.712  0.00  0.00    -0.008 C 
ENDBRANCH  17  19
BRANCH  17  25
ATOM     25  C   LIG    1       25.028  45.357 181.884  0.00  0.00    +0.187 C 
BRANCH  25  26
ATOM     26  C   LIG    1       25.668  44.176 182.587  0.00  0.00    +0.122 A 
ATOM     27  O   LIG    1       25.754  44.146 183.947  0.00  0.00    -0.466 OA
ATOM     28  C   LIG    1       26.379  42.990 184.287  0.00  0.00    +0.195 A 
ATOM     29  C   LIG    1       26.684  42.297 183.168  0.00  0.00    +0.041 A 
ATOM     30  C   LIG    1       26.230  43.054 182.083  0.00  0.00    +0.046 A 
ENDBRANCH  25  26
ENDBRANCH  17  25
ENDBRANCH   1  16
TORSDOF 5
ENDMDL
MODEL 5
REMARK VINA RESULT:      -7.6     25.795     28.395
REMARK  Name = ZINC000006087399
REMARK                            x       y       z     vdW  Elec       q    Type
REMARK                         _______ _______ _______ _____ _____    ______ ____
ROOT
ATOM      1  C   LIG    1       23.362  40.558 212.175  0.00  0.00    +0.214 C 
ENDROOT
BRANCH   1   7
ATOM      2  C   LIG    1       27.768  43.591 211.030  0.00  0.00    +0.010 C 
ATOM      3  C   LIG    1       27.923  42.117 211.472  0.00  0.00    +0.018 C 
ATOM      4  C   LIG    1       26.906  41.715 212.593  0.00  0.00    +0.115 C 
ATOM      5  C   LIG    1       25.445  41.939 212.195  0.00  0.00    +0.247 C 
ATOM      6  O   LIG    1       24.845  42.966 211.931  0.00  0.00    -0.273 OA
ATOM      7  N   LIG    1       24.815  40.734 212.231  0.00  0.00    -0.215 N 
ATOM      8  C   LIG    1       25.682  39.753 212.618  0.00  0.00    +0.310 C 
ATOM      9  O   LIG    1       25.383  38.590 212.822  0.00  0.00    -0.252 OA
ATOM     10  N   LIG    1       26.920  40.265 212.755  0.00  0.00    -0.285 N 
ATOM     11  H   LIG    1       27.611  39.761 213.319  0.00  0.00    +0.151 HD
ATOM     12  C   LIG    1       27.199  42.392 213.958  0.00  0.00    +0.035 C 
ATOM     13  C   LIG    1       28.652  42.095 214.387  0.00  0.00    +0.003 C 
ATOM     14  C   LIG    1       29.663  42.528 213.318  0.00  0.00    +0.000 C 
ATOM     15  C   LIG    1       29.361  41.854 211.971  0.00  0.00    +0.006 C 
ENDBRANCH   1   7
BRANCH   1  16
ATOM     16  C   LIG    1       22.971  40.078 210.775  0.00  0.00    +0.238 C 
ATOM     17  N   LIG    1       22.173  40.905 210.005  0.00  0.00    -0.267 N 
ATOM     18  O   LIG    1       23.330  39.006 210.305  0.00  0.00    -0.274 OA
BRANCH  17  19
ATOM     19  C   LIG    1       21.734  42.163 210.474  0.00  0.00    +0.010 C 
ATOM     20  C   LIG    1       20.732  42.115 211.612  0.00  0.00    +0.051 C 
ATOM     21  C   LIG    1       20.034  43.492 211.680  0.00  0.00    +0.006 C 
ATOM     22  C   LIG    1       21.131  44.574 211.748  0.00  0.00    +0.004 C 
ATOM     23  C   LIG    1       21.795  44.678 210.356  0.00  0.00    +0.029 C 
ATOM     24  C   LIG    1       22.226  43.289 209.927  0.00  0.00    -0.008 C 
ENDBRANCH  17  19
BRANCH  17  25
ATOM     25  C   LIG    1       21.647  40.424 208.716  0.00  0.00    +0.187 C 
BRANCH  25  26
ATOM     26  C   LIG    1       20.162  40.207 208.934  0.00  0.00    +0.122 A 
ATOM     27  O   LIG    1       19.724  39.272 209.823  0.00  0.00    -0.466 OA
ATOM     28  C   LIG    1       18.367  39.293 209.794  0.00  0.00    +0.195 A 
ATOM     29  C   LIG    1       17.948  40.222 208.907  0.00  0.00    +0.041 A 
ATOM     30  C   LIG    1       19.094  40.806 208.358  0.00  0.00    +0.046 A 
ENDBRANCH  25  26
ENDBRANCH  17  25
ENDBRANCH   1  16
TORSDOF 5
ENDMDL
MODEL 6
REMARK VINA RESULT:      -7.6     25.533     28.181
REMARK  Name = ZINC000006087399
REMARK                            x       y       z     vdW  Elec       q    Type
REMARK                         _______ _______ _______ _____ _____    ______ ____
ROOT
ATOM      1  C   LIG    1       19.675  40.483 209.965  0.00  0.00    +0.214 C 
ENDROOT
BRANCH   1   7
ATOM      2  C   LIG    1       17.107  35.717 210.739  0.00  0.00    +0.010 C 
ATOM      3  C   LIG    1       17.230  36.320 209.321  0.00  0.00    +0.018 C 
ATOM      4  C   LIG    1       17.058  37.876 209.313  0.00  0.00    +0.115 C 
ATOM      5  C   LIG    1       18.051  38.602 210.224  0.00  0.00    +0.247 C 
ATOM      6  O   LIG    1       18.191  38.561 211.434  0.00  0.00    -0.273 OA
ATOM      7  N   LIG    1       18.800  39.429 209.447  0.00  0.00    -0.215 N 
ATOM      8  C   LIG    1       18.408  39.344 208.142  0.00  0.00    +0.310 C 
ATOM      9  O   LIG    1       18.839  40.029 207.232  0.00  0.00    -0.252 OA
ATOM     10  N   LIG    1       17.462  38.396 208.010  0.00  0.00    -0.285 N 
ATOM     11  H   LIG    1       16.851  38.409 207.187  0.00  0.00    +0.151 HD
ATOM     12  C   LIG    1       15.609  38.334 209.627  0.00  0.00    +0.035 C 
ATOM     13  C   LIG    1       14.624  37.656 208.652  0.00  0.00    +0.003 C 
ATOM     14  C   LIG    1       14.748  36.128 208.685  0.00  0.00    +0.000 C 
ATOM     15  C   LIG    1       16.186  35.686 208.375  0.00  0.00    +0.006 C 
ENDBRANCH   1   7
BRANCH   1  16
ATOM     16  C   LIG    1       21.131  40.029 209.841  0.00  0.00    +0.238 C 
ATOM     17  N   LIG    1       21.843  39.804 211.005  0.00  0.00    -0.267 N 
ATOM     18  O   LIG    1       21.694  39.854 208.767  0.00  0.00    -0.274 OA
BRANCH  17  19
ATOM     19  C   LIG    1       21.255  39.970 212.280  0.00  0.00    +0.010 C 
ATOM     20  C   LIG    1       20.850  41.390 212.625  0.00  0.00    +0.051 C 
ATOM     21  C   LIG    1       20.673  41.467 214.158  0.00  0.00    +0.006 C 
ATOM     22  C   LIG    1       19.712  40.336 214.579  0.00  0.00    +0.004 C 
ATOM     23  C   LIG    1       20.468  38.992 214.463  0.00  0.00    +0.029 C 
ATOM     24  C   LIG    1       21.072  38.901 213.074  0.00  0.00    -0.008 C 
ENDBRANCH  17  19
BRANCH  17  25
ATOM     25  C   LIG    1       23.285  39.515 210.940  0.00  0.00    +0.187 C 
BRANCH  25  26
ATOM     26  C   LIG    1       23.980  40.786 211.386  0.00  0.00    +0.122 A 
ATOM     27  O   LIG    1       23.900  41.918 210.632  0.00  0.00    -0.466 OA
ATOM     28  C   LIG    1       24.623  42.878 211.265  0.00  0.00    +0.195 A 
ATOM     29  C   LIG    1       25.151  42.369 212.400  0.00  0.00    +0.041 A 
ATOM     30  C   LIG    1       24.741  41.034 212.477  0.00  0.00    +0.046 A 
ENDBRANCH  25  26
ENDBRANCH  17  25
ENDBRANCH   1  16
TORSDOF 5
ENDMDL
MODEL 7
REMARK VINA RESULT:      -7.5     28.963     31.155
REMARK  Name = ZINC000006087399
REMARK                            x       y       z     vdW  Elec       q    Type
REMARK                         _______ _______ _______ _____ _____    ______ ____
ROOT
ATOM      1  C   LIG    1       38.061  21.040 192.660  0.00  0.00    +0.214 C 
ENDROOT
BRANCH   1   7
ATOM      2  C   LIG    1       38.628  20.057 187.309  0.00  0.00    +0.010 C 
ATOM      3  C   LIG    1       37.349  20.737 187.850  0.00  0.00    +0.018 C 
ATOM      4  C   LIG    1       36.880  20.133 189.217  0.00  0.00    +0.115 C 
ATOM      5  C   LIG    1       37.950  20.199 190.309  0.00  0.00    +0.247 C 
ATOM      6  O   LIG    1       39.044  19.667 190.379  0.00  0.00    -0.273 OA
ATOM      7  N   LIG    1       37.458  20.955 191.327  0.00  0.00    -0.215 N 
ATOM      8  C   LIG    1       36.193  21.379 191.041  0.00  0.00    +0.310 C 
ATOM      9  O   LIG    1       35.470  22.000 191.799  0.00  0.00    -0.252 OA
ATOM     10  N   LIG    1       35.854  20.996 189.795  0.00  0.00    -0.285 N 
ATOM     11  H   LIG    1       34.864  20.958 189.534  0.00  0.00    +0.151 HD
ATOM     12  C   LIG    1       36.330  18.687 189.091  0.00  0.00    +0.035 C 
ATOM     13  C   LIG    1       35.199  18.648 188.043  0.00  0.00    +0.003 C 
ATOM     14  C   LIG    1       35.659  19.192 186.685  0.00  0.00    +0.000 C 
ATOM     15  C   LIG    1       36.203  20.622 186.822  0.00  0.00    +0.006 C 
ENDBRANCH   1   7
BRANCH   1  16
ATOM     16  C   LIG    1       39.177  22.087 192.636  0.00  0.00    +0.238 C 
ATOM     17  N   LIG    1       40.191  21.977 193.571  0.00  0.00    -0.267 N 
ATOM     18  O   LIG    1       39.220  23.011 191.833  0.00  0.00    -0.274 OA
BRANCH  17  19
ATOM     19  C   LIG    1       40.218  20.928 194.518  0.00  0.00    +0.010 C 
ATOM     20  C   LIG    1       39.206  21.046 195.643  0.00  0.00    +0.051 C 
ATOM     21  C   LIG    1       39.669  20.117 196.787  0.00  0.00    +0.006 C 
ATOM     22  C   LIG    1       39.902  18.714 196.191  0.00  0.00    +0.004 C 
ATOM     23  C   LIG    1       41.194  18.758 195.344  0.00  0.00    +0.029 C 
ATOM     24  C   LIG    1       41.085  19.912 194.365  0.00  0.00    -0.008 C 
ENDBRANCH  17  19
BRANCH  17  25
ATOM     25  C   LIG    1       41.202  23.041 193.687  0.00  0.00    +0.187 C 
BRANCH  25  26
ATOM     26  C   LIG    1       40.770  23.892 194.865  0.00  0.00    +0.122 A 
ATOM     27  O   LIG    1       39.589  24.569 194.832  0.00  0.00    -0.466 OA
ATOM     28  C   LIG    1       39.478  25.246 196.004  0.00  0.00    +0.195 A 
ATOM     29  C   LIG    1       40.565  25.005 196.768  0.00  0.00    +0.041 A 
ATOM     30  C   LIG    1       41.390  24.140 196.042  0.00  0.00    +0.046 A 
ENDBRANCH  25  26
ENDBRANCH  17  25
ENDBRANCH   1  16
TORSDOF 5
ENDMDL
MODEL 8
REMARK VINA RESULT:      -7.4     25.616     28.153
REMARK  Name = ZINC000006087399
REMARK                            x       y       z     vdW  Elec       q    Type
REMARK                         _______ _______ _______ _____ _____    ______ ____
ROOT
ATOM      1  C   LIG    1       20.326  40.639 211.446  0.00  0.00    +0.214 C 
ENDROOT
BRANCH   1   7
ATOM      2  C   LIG    1       16.963  36.363 210.878  0.00  0.00    +0.010 C 
ATOM      3  C   LIG    1       17.533  37.083 209.635  0.00  0.00    +0.018 C 
ATOM      4  C   LIG    1       17.603  38.636 209.819  0.00  0.00    +0.115 C 
ATOM      5  C   LIG    1       18.427  39.067 211.034  0.00  0.00    +0.247 C 
ATOM      6  O   LIG    1       18.246  38.871 212.224  0.00  0.00    -0.273 OA
ATOM      7  N   LIG    1       19.465  39.823 210.586  0.00  0.00    -0.215 N 
ATOM      8  C   LIG    1       19.411  39.952 209.228  0.00  0.00    +0.310 C 
ATOM      9  O   LIG    1       20.158  40.642 208.556  0.00  0.00    -0.252 OA
ATOM     10  N   LIG    1       18.399  39.211 208.739  0.00  0.00    -0.285 N 
ATOM     11  H   LIG    1       18.027  39.423 207.807  0.00  0.00    +0.151 HD
ATOM     12  C   LIG    1       16.207  39.313 209.851  0.00  0.00    +0.035 C 
ATOM     13  C   LIG    1       15.413  38.935 208.583  0.00  0.00    +0.003 C 
ATOM     14  C   LIG    1       15.295  37.415 208.415  0.00  0.00    +0.000 C 
ATOM     15  C   LIG    1       16.683  36.755 208.387  0.00  0.00    +0.006 C 
ENDBRANCH   1   7
BRANCH   1  16
ATOM     16  C   LIG    1       21.565  39.825 211.828  0.00  0.00    +0.238 C 
ATOM     17  N   LIG    1       22.806  40.337 211.497  0.00  0.00    -0.267 N 
ATOM     18  O   LIG    1       21.512  38.749 212.412  0.00  0.00    -0.274 OA
BRANCH  17  19
ATOM     19  C   LIG    1       22.946  41.579 210.838  0.00  0.00    +0.010 C 
ATOM     20  C   LIG    1       23.258  41.493 209.355  0.00  0.00    +0.051 C 
ATOM     21  C   LIG    1       23.821  42.862 208.915  0.00  0.00    +0.006 C 
ATOM     22  C   LIG    1       22.824  43.949 209.365  0.00  0.00    +0.004 C 
ATOM     23  C   LIG    1       22.930  44.097 210.900  0.00  0.00    +0.029 C 
ATOM     24  C   LIG    1       22.778  42.723 211.525  0.00  0.00    -0.008 C 
ENDBRANCH  17  19
BRANCH  17  25
ATOM     25  C   LIG    1       24.015  39.524 211.706  0.00  0.00    +0.187 C 
BRANCH  25  26
ATOM     26  C   LIG    1       24.871  40.304 212.684  0.00  0.00    +0.122 A 
ATOM     27  O   LIG    1       24.383  40.646 213.910  0.00  0.00    -0.466 OA
ATOM     28  C   LIG    1       25.355  41.343 214.552  0.00  0.00    +0.195 A 
ATOM     29  C   LIG    1       26.441  41.443 213.754  0.00  0.00    +0.041 A 
ATOM     30  C   LIG    1       26.132  40.780 212.562  0.00  0.00    +0.046 A 
ENDBRANCH  25  26
ENDBRANCH  17  25
ENDBRANCH   1  16
TORSDOF 5
ENDMDL
MODEL 9
REMARK VINA RESULT:      -7.3     24.540     27.222
REMARK  Name = ZINC000006087399
REMARK                            x       y       z     vdW  Elec       q    Type
REMARK                         _______ _______ _______ _____ _____    ______ ____
ROOT
ATOM      1  C   LIG    1       23.568  41.525 209.622  0.00  0.00    +0.214 C 
ENDROOT
BRANCH   1   7
ATOM      2  C   LIG    1       18.377  41.821 211.321  0.00  0.00    +0.010 C 
ATOM      3  C   LIG    1       19.075  40.450 211.166  0.00  0.00    +0.018 C 
ATOM      4  C   LIG    1       20.005  40.388 209.908  0.00  0.00    +0.115 C 
ATOM      5  C   LIG    1       21.085  41.472 209.897  0.00  0.00    +0.247 C 
ATOM      6  O   LIG    1       20.988  42.686 209.842  0.00  0.00    -0.273 OA
ATOM      7  N   LIG    1       22.296  40.853 209.897  0.00  0.00    -0.215 N 
ATOM      8  C   LIG    1       22.139  39.497 209.891  0.00  0.00    +0.310 C 
ATOM      9  O   LIG    1       23.043  38.685 209.804  0.00  0.00    -0.252 OA
ATOM     10  N   LIG    1       20.832  39.188 209.983  0.00  0.00    -0.285 N 
ATOM     11  H   LIG    1       20.515  38.258 209.690  0.00  0.00    +0.151 HD
ATOM     12  C   LIG    1       19.223  40.396 208.567  0.00  0.00    +0.035 C 
ATOM     13  C   LIG    1       18.190  39.250 208.558  0.00  0.00    +0.003 C 
ATOM     14  C   LIG    1       17.241  39.326 209.760  0.00  0.00    +0.000 C 
ATOM     15  C   LIG    1       18.026  39.320 211.081  0.00  0.00    +0.006 C 
ENDBRANCH   1   7
BRANCH   1  16
ATOM     16  C   LIG    1       24.127  42.089 210.931  0.00  0.00    +0.238 C 
ATOM     17  N   LIG    1       24.537  43.410 210.947  0.00  0.00    -0.267 N 
ATOM     18  O   LIG    1       24.226  41.433 211.961  0.00  0.00    -0.274 OA
BRANCH  17  19
ATOM     19  C   LIG    1       24.437  44.233 209.803  0.00  0.00    +0.010 C 
ATOM     20  C   LIG    1       25.496  43.996 208.742  0.00  0.00    +0.051 C 
ATOM     21  C   LIG    1       25.524  45.238 207.824  0.00  0.00    +0.006 C 
ATOM     22  C   LIG    1       24.084  45.499 207.338  0.00  0.00    +0.004 C 
ATOM     23  C   LIG    1       23.269  46.062 208.525  0.00  0.00    +0.029 C 
ATOM     24  C   LIG    1       23.437  45.127 209.708  0.00  0.00    -0.008 C 
ENDBRANCH  17  19
BRANCH  17  25
ATOM     25  C   LIG    1       25.219  43.952 212.133  0.00  0.00    +0.187 C 
BRANCH  25  26
ATOM     26  C   LIG    1       26.703  43.829 211.847  0.00  0.00    +0.122 A 
ATOM     27  O   LIG    1       27.317  42.614 211.896  0.00  0.00    -0.466 OA
ATOM     28  C   LIG    1       28.630  42.813 211.613  0.00  0.00    +0.195 A 
ATOM     29  C   LIG    1       28.848  44.127 211.387  0.00  0.00    +0.041 A 
ATOM     30  C   LIG    1       27.618  44.775 211.536  0.00  0.00    +0.046 A 
ENDBRANCH  25  26
ENDBRANCH  17  25
ENDBRANCH   1  16
TORSDOF 5
ENDMDL
