REMARK VINA RESULT:      -7.4      0.000      0.000
REMARK  Name = ZINC000006087400
REMARK                            x       y       z     vdW  Elec       q    Type
REMARK                         _______ _______ _______ _____ _____    ______ ____
ROOT
ATOM      1  C   LIG    1       27.470  43.773 181.724  0.00  0.00    +0.214 C 
ENDROOT
BRANCH   1   7
ATOM      2  C   LIG    1       25.691  47.792 180.867  0.00  0.00    +0.010 C 
ATOM      3  C   LIG    1       26.299  47.766 179.447  0.00  0.00    +0.018 C 
ATOM      4  C   LIG    1       27.367  46.634 179.281  0.00  0.00    +0.115 C 
ATOM      5  C   LIG    1       26.907  45.258 179.778  0.00  0.00    +0.247 C 
ATOM      6  O   LIG    1       26.041  44.509 179.361  0.00  0.00    -0.273 OA
ATOM      7  N   LIG    1       27.682  44.930 180.849  0.00  0.00    -0.215 N 
ATOM      8  C   LIG    1       28.593  45.920 181.101  0.00  0.00    +0.310 C 
ATOM      9  O   LIG    1       29.375  45.937 182.034  0.00  0.00    -0.252 OA
ATOM     10  N   LIG    1       28.492  46.887 180.169  0.00  0.00    -0.285 N 
ATOM     11  H   LIG    1       28.880  47.816 180.370  0.00  0.00    +0.151 HD
ATOM     12  C   LIG    1       27.924  46.594 177.835  0.00  0.00    +0.035 C 
ATOM     13  C   LIG    1       26.767  46.426 176.833  0.00  0.00    +0.003 C 
ATOM     14  C   LIG    1       25.723  47.539 176.988  0.00  0.00    +0.000 C 
ATOM     15  C   LIG    1       25.169  47.570 178.418  0.00  0.00    +0.006 C 
ENDBRANCH   1   7
BRANCH   1  16
ATOM     16  C   LIG    1       26.454  44.186 182.791  0.00  0.00    +0.238 C 
ATOM     17  N   LIG    1       25.245  43.516 182.899  0.00  0.00    -0.267 N 
ATOM     18  O   LIG    1       26.686  45.102 183.567  0.00  0.00    -0.274 OA
BRANCH  17  19
ATOM     19  C   LIG    1       24.836  42.534 181.966  0.00  0.00    +0.010 C 
ATOM     20  C   LIG    1       23.663  42.921 181.084  0.00  0.00    +0.051 C 
ATOM     21  C   LIG    1       23.057  41.619 180.513  0.00  0.00    +0.006 C 
ATOM     22  C   LIG    1       24.199  40.825 179.847  0.00  0.00    +0.004 C 
ATOM     23  C   LIG    1       25.096  40.239 180.959  0.00  0.00    +0.029 C 
ATOM     24  C   LIG    1       25.491  41.360 181.902  0.00  0.00    -0.008 C 
ENDBRANCH  17  19
BRANCH  17  25
ATOM     25  C   LIG    1       24.307  43.879 183.978  0.00  0.00    +0.187 C 
BRANCH  25  26
ATOM     26  C   LIG    1       24.550  42.877 185.090  0.00  0.00    +0.122 A 
ATOM     27  O   LIG    1       23.588  42.630 186.022  0.00  0.00    -0.466 OA
ATOM     28  C   LIG    1       24.088  41.710 186.884  0.00  0.00    +0.195 A 
ATOM     29  C   LIG    1       25.343  41.376 186.511  0.00  0.00    +0.041 A 
ATOM     30  C   LIG    1       25.639  42.122 185.366  0.00  0.00    +0.046 A 
ENDBRANCH  25  26
ENDBRANCH  17  25
ENDBRANCH   1  16
TORSDOF 5
