REMARK VINA RESULT:      -8.1      0.000      0.000
REMARK  Name = ZINC000022624335
REMARK                            x       y       z     vdW  Elec       q    Type
REMARK                         _______ _______ _______ _____ _____    ______ ____
ROOT
ATOM      1  C   LIG    1       35.257  20.319 187.349  0.00  0.00    +0.121 A 
ATOM      2  N   LIG    1       34.573  19.227 187.716  0.00  0.00    -0.238 NA
ATOM      3  C   LIG    1       33.538  18.835 186.971  0.00  0.00    +0.136 A 
ATOM      4  C   LIG    1       33.150  19.526 185.818  0.00  0.00    +0.052 A 
ATOM      5  C   LIG    1       33.861  20.657 185.417  0.00  0.00    +0.028 A 
ATOM      6  C   LIG    1       34.932  21.051 186.199  0.00  0.00    +0.045 A 
ENDROOT
BRANCH   1  11
ATOM      7  C   LIG    1       39.531  20.111 190.481  0.00  0.00    +0.221 C 
ATOM      8  N   LIG    1       38.556  20.850 189.889  0.00  0.00    -0.298 N 
ATOM      9  C   LIG    1       37.202  21.180 190.401  0.00  0.00    +0.126 C 
ATOM     10  C   LIG    1       36.187  20.341 189.586  0.00  0.00    +0.125 C 
ATOM     11  N   LIG    1       36.326  20.724 188.157  0.00  0.00    -0.312 N 
ATOM     12  C   LIG    1       37.700  20.433 187.641  0.00  0.00    +0.125 C 
ATOM     13  C   LIG    1       38.699  21.277 188.466  0.00  0.00    +0.126 C 
ATOM     14  O   LIG    1       40.544  19.849 189.834  0.00  0.00    -0.275 OA
BRANCH   7  15
ATOM     15  C   LIG    1       39.439  19.570 191.957  0.00  0.00    +0.041 C 
ATOM     16  C   LIG    1       40.734  18.801 192.340  0.00  0.00    +0.020 C 
ATOM     17  C   LIG    1       39.400  20.711 193.004  0.00  0.00    +0.020 C 
BRANCH  15  19
ATOM     18  C   LIG    1       38.168  17.417 191.197  0.00  0.00    +0.005 C 
ATOM     19  C   LIG    1       38.262  18.581 192.200  0.00  0.00    +0.012 C 
ENDBRANCH  15  19
ENDBRANCH   7  15
ENDBRANCH   1  11
BRANCH   4  20
ATOM     20  N   LIG    1       32.053  19.034 185.052  0.00  0.00    -0.280 N 
ATOM     21  H   LIG    1       31.131  19.452 185.217  0.00  0.00    +0.155 HD
ATOM     22  C   LIG    1       32.118  18.106 184.034  0.00  0.00    +0.248 C 
ATOM     23  O   LIG    1       33.218  17.740 183.640  0.00  0.00    -0.270 OA
BRANCH  22  24
ATOM     24  C   LIG    1       30.862  17.636 183.443  0.00  0.00    +0.037 A 
ATOM     25  C   LIG    1       29.620  17.890 184.059  0.00  0.00    +0.016 A 
ATOM     26  C   LIG    1       28.438  17.446 183.473  0.00  0.00    +0.039 A 
ATOM     27  C   LIG    1       28.505  16.744 182.277  0.00  0.00    +0.123 A 
ATOM     28  F   LIG    1       27.352  16.314 181.706  0.00  0.00    -0.205 F 
ATOM     29  C   LIG    1       29.711  16.464 181.650  0.00  0.00    +0.039 A 
ATOM     30  C   LIG    1       30.889  16.910 182.238  0.00  0.00    +0.016 A 
ENDBRANCH  22  24
ENDBRANCH   4  20
TORSDOF 5
