REMARK VINA RESULT:      -9.2      0.000      0.000
REMARK  Name = ZINC000049483826
REMARK                            x       y       z     vdW  Elec       q    Type
REMARK                         _______ _______ _______ _____ _____    ______ ____
ROOT
ATOM      1  N   LIG    1       27.726  17.107 186.032  0.00  0.00    -0.175 NA
ATOM      2  C   LIG    1       28.221  16.033 186.899  0.00  0.00    +0.123 C 
ATOM      3  C   LIG    1       26.738  15.776 187.268  0.00  0.00    +0.109 C 
ATOM      4  C   LIG    1       26.430  17.191 186.712  0.00  0.00    +0.123 C 
ENDROOT
BRANCH   3   5
ATOM      5  C   LIG    1       26.517  15.673 188.757  0.00  0.00    +0.233 A 
ATOM      6  O   LIG    1       27.345  16.287 189.576  0.00  0.00    -0.337 OA
ATOM      7  N   LIG    1       26.949  16.051 190.808  0.00  0.00    -0.056 NA
ATOM      8  C   LIG    1       25.900  15.309 190.695  0.00  0.00    +0.209 A 
ATOM      9  N   LIG    1       25.607  15.057 189.393  0.00  0.00    -0.191 NA
BRANCH   8  10
ATOM     10  C   LIG    1       25.128  14.806 191.823  0.00  0.00    +0.060 A 
ATOM     11  S   LIG    1       25.260  15.506 193.410  0.00  0.00    -0.093 S 
ATOM     12  C   LIG    1       24.106  14.393 194.048  0.00  0.00    +0.046 A 
ATOM     13  C   LIG    1       23.648  13.534 193.089  0.00  0.00    +0.008 A 
ATOM     14  C   LIG    1       24.225  13.767 191.832  0.00  0.00    +0.019 A 
ENDBRANCH   8  10
ENDBRANCH   3   5
BRANCH   1  15
ATOM     15  S   LIG    1       27.874  17.053 184.396  0.00  0.00    +0.061 S 
ATOM     16  O   LIG    1       27.499  15.760 183.942  0.00  0.00    -0.153 OA
ATOM     17  O   LIG    1       27.142  18.148 183.857  0.00  0.00    -0.153 OA
BRANCH  15  20
ATOM     18  C   LIG    1       29.435  16.560 181.642  0.00  0.00    +0.046 C 
ATOM     19  C   LIG    1       30.240  17.070 182.828  0.00  0.00    -0.024 A 
ATOM     20  C   LIG    1       29.642  17.319 184.080  0.00  0.00    +0.110 A 
ATOM     21  C   LIG    1       30.440  17.793 185.126  0.00  0.00    +0.048 A 
ATOM     22  C   LIG    1       31.803  18.012 184.940  0.00  0.00    +0.043 A 
ATOM     23 CL   LIG    1       32.771  18.592 186.253  0.00  0.00    -0.083 Cl
ATOM     24  C   LIG    1       32.388  17.765 183.702  0.00  0.00    +0.020 A 
ATOM     25  C   LIG    1       31.607  17.297 182.654  0.00  0.00    +0.007 A 
ENDBRANCH  15  20
ENDBRANCH   1  15
TORSDOF 4
