MODEL 1
REMARK VINA RESULT:      -7.6      0.000      0.000
REMARK  Name = ZINC000000538069
REMARK                            x       y       z     vdW  Elec       q    Type
REMARK                         _______ _______ _______ _____ _____    ______ ____
ROOT
ATOM      1  C   LIG    1       22.529  45.682 186.468  0.00  0.00    +0.248 C 
ATOM      2  N   LIG    1       22.603  46.875 185.811  0.00  0.00    -0.307 N 
ATOM      3  H   LIG    1       22.149  47.675 186.283  0.00  0.00    +0.149 HD
ATOM      4  O   LIG    1       22.845  44.687 185.821  0.00  0.00    -0.270 OA
ENDROOT
BRANCH   1   9
ATOM      5  C   LIG    1       21.412  45.444 190.608  0.00  0.00    +0.049 A 
ATOM      6  C   LIG    1       22.509  44.716 190.101  0.00  0.00    +0.063 A 
ATOM      7 CL   LIG    1       23.459  43.708 191.145  0.00  0.00    -0.082 Cl
ATOM      8  C   LIG    1       22.844  44.811 188.756  0.00  0.00    +0.038 A 
ATOM      9  C   LIG    1       22.109  45.624 187.874  0.00  0.00    +0.080 A 
ATOM     10  C   LIG    1       21.000  46.331 188.401  0.00  0.00    +0.134 A 
ATOM     11  C   LIG    1       20.656  46.244 189.752  0.00  0.00    +0.070 A 
BRANCH   5  13
ATOM     12  C   LIG    1       20.149  46.302 192.568  0.00  0.00    +0.125 C 
ATOM     13  N   LIG    1       21.086  45.344 191.973  0.00  0.00    -0.346 N 
ATOM     14  H   LIG    1       21.925  45.173 192.560  0.00  0.00    +0.146 HD
ENDBRANCH   5  13
BRANCH  10  15
ATOM     15  O   LIG    1       20.225  47.124 187.570  0.00  0.00    -0.494 OA
ATOM     16  C   LIG    1       19.155  48.030 187.929  0.00  0.00    +0.277 C 
ENDBRANCH  10  15
ENDBRANCH   1   9
BRANCH   2  17
ATOM     17  C   LIG    1       22.655  47.010 184.353  0.00  0.00    +0.091 C 
ATOM     18  C   LIG    1       21.409  47.753 183.819  0.00  0.00    +0.074 C 
ATOM     19  C   LIG    1       20.097  47.213 184.418  0.00  0.00    +0.026 C 
ATOM     20  N   LIG    1       21.594  49.132 184.291  0.00  0.00    -0.294 NA
ATOM     21  C   LIG    1       23.049  49.387 184.434  0.00  0.00    +0.087 C 
ATOM     22  C   LIG    1       23.728  48.052 184.066  0.00  0.00    +0.039 C 
BRANCH  20  23
ATOM     23  C   LIG    1       20.936  50.121 183.412  0.00  0.00    +0.120 C 
BRANCH  23  24
ATOM     24  C   LIG    1       19.631  50.476 184.104  0.00  0.00    -0.033 A 
ATOM     25  C   LIG    1       18.426  50.478 183.402  0.00  0.00    +0.005 A 
ATOM     26  C   LIG    1       17.236  50.799 184.049  0.00  0.00    +0.000 A 
ATOM     27  C   LIG    1       17.245  51.121 185.403  0.00  0.00    +0.000 A 
ATOM     28  C   LIG    1       18.443  51.120 186.109  0.00  0.00    +0.000 A 
ATOM     29  C   LIG    1       19.632  50.800 185.461  0.00  0.00    +0.005 A 
ENDBRANCH  23  24
ENDBRANCH  20  23
ENDBRANCH   2  17
TORSDOF 6
ENDMDL
MODEL 2
REMARK VINA RESULT:      -7.3      2.435      4.769
REMARK  Name = ZINC000000538069
REMARK                            x       y       z     vdW  Elec       q    Type
REMARK                         _______ _______ _______ _____ _____    ______ ____
ROOT
ATOM      1  C   LIG    1       20.142  47.428 187.802  0.00  0.00    +0.248 C 
ATOM      2  N   LIG    1       20.734  47.489 186.575  0.00  0.00    -0.307 N 
ATOM      3  H   LIG    1       21.683  47.085 186.515  0.00  0.00    +0.149 HD
ATOM      4  O   LIG    1       19.130  48.109 187.950  0.00  0.00    -0.270 OA
ENDROOT
BRANCH   1   9
ATOM      5  C   LIG    1       21.671  44.984 190.985  0.00  0.00    +0.049 A 
ATOM      6  C   LIG    1       20.701  45.980 191.226  0.00  0.00    +0.063 A 
ATOM      7 CL   LIG    1       20.079  46.238 192.823  0.00  0.00    -0.082 Cl
ATOM      8  C   LIG    1       20.229  46.757 190.176  0.00  0.00    +0.038 A 
ATOM      9  C   LIG    1       20.697  46.575 188.862  0.00  0.00    +0.080 A 
ATOM     10  C   LIG    1       21.684  45.583 188.647  0.00  0.00    +0.134 A 
ATOM     11  C   LIG    1       22.165  44.795 189.694  0.00  0.00    +0.070 A 
BRANCH   5  13
ATOM     12  C   LIG    1       23.281  43.302 191.853  0.00  0.00    +0.125 C 
ATOM     13  N   LIG    1       22.138  44.199 192.056  0.00  0.00    -0.346 N 
ATOM     14  H   LIG    1       21.360  43.759 192.582  0.00  0.00    +0.146 HD
ENDBRANCH   5  13
BRANCH  10  15
ATOM     15  O   LIG    1       22.201  45.383 187.376  0.00  0.00    -0.494 OA
ATOM     16  C   LIG    1       22.960  44.256 186.879  0.00  0.00    +0.277 C 
ENDBRANCH  10  15
ENDBRANCH   1   9
BRANCH   2  17
ATOM     17  C   LIG    1       20.488  48.549 185.594  0.00  0.00    +0.091 C 
ATOM     18  C   LIG    1       21.440  48.419 184.384  0.00  0.00    +0.074 C 
ATOM     19  C   LIG    1       22.904  48.192 184.806  0.00  0.00    +0.026 C 
ATOM     20  N   LIG    1       20.970  47.210 183.696  0.00  0.00    -0.294 NA
ATOM     21  C   LIG    1       19.522  47.043 183.979  0.00  0.00    +0.087 C 
ATOM     22  C   LIG    1       19.162  48.205 184.927  0.00  0.00    +0.039 C 
BRANCH  20  23
ATOM     23  C   LIG    1       21.257  47.239 182.247  0.00  0.00    +0.120 C 
BRANCH  23  24
ATOM     24  C   LIG    1       21.524  45.796 181.856  0.00  0.00    -0.033 A 
ATOM     25  C   LIG    1       21.078  45.291 180.634  0.00  0.00    +0.005 A 
ATOM     26  C   LIG    1       21.335  43.967 180.285  0.00  0.00    +0.000 A 
ATOM     27  C   LIG    1       22.039  43.141 181.157  0.00  0.00    +0.000 A 
ATOM     28  C   LIG    1       22.486  43.639 182.376  0.00  0.00    +0.000 A 
ATOM     29  C   LIG    1       22.228  44.961 182.724  0.00  0.00    +0.005 A 
ENDBRANCH  23  24
ENDBRANCH  20  23
ENDBRANCH   2  17
TORSDOF 6
ENDMDL
MODEL 3
REMARK VINA RESULT:      -7.1      2.400      4.415
REMARK  Name = ZINC000000538069
REMARK                            x       y       z     vdW  Elec       q    Type
REMARK                         _______ _______ _______ _____ _____    ______ ____
ROOT
ATOM      1  C   LIG    1       20.351  47.218 188.276  0.00  0.00    +0.248 C 
ATOM      2  N   LIG    1       20.516  47.430 186.939  0.00  0.00    -0.307 N 
ATOM      3  H   LIG    1       21.323  46.951 186.506  0.00  0.00    +0.149 HD
ATOM      4  O   LIG    1       19.556  47.960 188.848  0.00  0.00    -0.270 OA
ENDROOT
BRANCH   1   9
ATOM      5  C   LIG    1       22.555  44.056 190.167  0.00  0.00    +0.049 A 
ATOM      6  C   LIG    1       22.559  44.215 188.766  0.00  0.00    +0.063 A 
ATOM      7 CL   LIG    1       23.475  43.144 187.756  0.00  0.00    -0.082 Cl
ATOM      8  C   LIG    1       21.833  45.246 188.183  0.00  0.00    +0.038 A 
ATOM      9  C   LIG    1       21.085  46.147 188.963  0.00  0.00    +0.080 A 
ATOM     10  C   LIG    1       21.080  45.955 190.366  0.00  0.00    +0.134 A 
ATOM     11  C   LIG    1       21.808  44.923 190.963  0.00  0.00    +0.070 A 
BRANCH   5  13
ATOM     12  C   LIG    1       23.426  42.931 192.205  0.00  0.00    +0.125 C 
ATOM     13  N   LIG    1       23.299  43.010 190.746  0.00  0.00    -0.346 N 
ATOM     14  H   LIG    1       24.195  42.850 190.248  0.00  0.00    +0.146 HD
ENDBRANCH   5  13
BRANCH  10  15
ATOM     15  O   LIG    1       20.336  46.796 191.178  0.00  0.00    -0.494 OA
ATOM     16  C   LIG    1       19.958  46.610 192.563  0.00  0.00    +0.277 C 
ENDBRANCH  10  15
ENDBRANCH   1   9
BRANCH   2  17
ATOM     17  C   LIG    1       20.128  48.662 186.246  0.00  0.00    +0.091 C 
ATOM     18  C   LIG    1       20.885  48.808 184.907  0.00  0.00    +0.074 C 
ATOM     19  C   LIG    1       22.395  48.540 185.049  0.00  0.00    +0.026 C 
ATOM     20  N   LIG    1       20.311  47.753 184.062  0.00  0.00    -0.294 NA
ATOM     21  C   LIG    1       18.922  47.492 184.518  0.00  0.00    +0.087 C 
ATOM     22  C   LIG    1       18.715  48.425 185.728  0.00  0.00    +0.039 C 
BRANCH  20  23
ATOM     23  C   LIG    1       20.375  48.086 182.624  0.00  0.00    +0.120 C 
BRANCH  23  24
ATOM     24  C   LIG    1       20.771  46.797 181.925  0.00  0.00    -0.033 A 
ATOM     25  C   LIG    1       20.458  46.586 180.583  0.00  0.00    +0.005 A 
ATOM     26  C   LIG    1       20.832  45.402 179.952  0.00  0.00    +0.000 A 
ATOM     27  C   LIG    1       21.522  44.423 180.661  0.00  0.00    +0.000 A 
ATOM     28  C   LIG    1       21.837  44.628 182.000  0.00  0.00    +0.000 A 
ATOM     29  C   LIG    1       21.462  45.810 182.629  0.00  0.00    +0.005 A 
ENDBRANCH  23  24
ENDBRANCH  20  23
ENDBRANCH   2  17
TORSDOF 6
ENDMDL
MODEL 4
REMARK VINA RESULT:      -7.0     30.804     32.969
REMARK  Name = ZINC000000538069
REMARK                            x       y       z     vdW  Elec       q    Type
REMARK                         _______ _______ _______ _____ _____    ______ ____
ROOT
ATOM      1  C   LIG    1       36.349  18.953 193.962  0.00  0.00    +0.248 C 
ATOM      2  N   LIG    1       36.454  19.437 192.692  0.00  0.00    -0.307 N 
ATOM      3  H   LIG    1       35.995  18.872 191.957  0.00  0.00    +0.149 HD
ATOM      4  O   LIG    1       37.081  19.471 194.801  0.00  0.00    -0.270 OA
ENDROOT
BRANCH   1   9
ATOM      5  C   LIG    1       33.502  15.906 194.987  0.00  0.00    +0.049 A 
ATOM      6  C   LIG    1       33.621  17.085 195.752  0.00  0.00    +0.063 A 
ATOM      7 CL   LIG    1       32.602  17.352 197.129  0.00  0.00    -0.082 Cl
ATOM      8  C   LIG    1       34.554  18.051 195.397  0.00  0.00    +0.038 A 
ATOM      9  C   LIG    1       35.395  17.883 194.281  0.00  0.00    +0.080 A 
ATOM     10  C   LIG    1       35.271  16.682 193.540  0.00  0.00    +0.134 A 
ATOM     11  C   LIG    1       34.335  15.705 193.887  0.00  0.00    +0.070 A 
BRANCH   5  13
ATOM     12  C   LIG    1       31.244  14.914 194.686  0.00  0.00    +0.125 C 
ATOM     13  N   LIG    1       32.550  14.936 195.354  0.00  0.00    -0.346 N 
ATOM     14  H   LIG    1       32.485  14.827 196.384  0.00  0.00    +0.146 HD
ENDBRANCH   5  13
BRANCH  10  15
ATOM     15  O   LIG    1       36.094  16.453 192.449  0.00  0.00    -0.494 OA
ATOM     16  C   LIG    1       35.758  15.853 191.176  0.00  0.00    +0.277 C 
ENDBRANCH  10  15
ENDBRANCH   1   9
BRANCH   2  17
ATOM     17  C   LIG    1       37.590  20.220 192.200  0.00  0.00    +0.091 C 
ATOM     18  C   LIG    1       37.937  19.842 190.742  0.00  0.00    +0.074 C 
ATOM     19  C   LIG    1       38.001  18.319 190.526  0.00  0.00    +0.026 C 
ATOM     20  N   LIG    1       36.806  20.368 189.965  0.00  0.00    -0.294 NA
ATOM     21  C   LIG    1       36.235  21.528 190.694  0.00  0.00    +0.087 C 
ATOM     22  C   LIG    1       37.065  21.635 191.990  0.00  0.00    +0.039 C 
BRANCH  20  23
ATOM     23  C   LIG    1       37.186  20.710 188.579  0.00  0.00    +0.120 C 
BRANCH  23  24
ATOM     24  C   LIG    1       35.998  20.311 187.721  0.00  0.00    -0.033 A 
ATOM     25  C   LIG    1       35.231  19.190 188.038  0.00  0.00    +0.005 A 
ATOM     26  C   LIG    1       34.141  18.838 187.246  0.00  0.00    +0.000 A 
ATOM     27  C   LIG    1       33.811  19.606 186.133  0.00  0.00    +0.000 A 
ATOM     28  C   LIG    1       34.572  20.725 185.813  0.00  0.00    +0.000 A 
ATOM     29  C   LIG    1       35.662  21.075 186.603  0.00  0.00    +0.005 A 
ENDBRANCH  23  24
ENDBRANCH  20  23
ENDBRANCH   2  17
TORSDOF 6
ENDMDL
MODEL 5
REMARK VINA RESULT:      -6.7     21.833     25.514
REMARK  Name = ZINC000000538069
REMARK                            x       y       z     vdW  Elec       q    Type
REMARK                         _______ _______ _______ _____ _____    ______ ____
ROOT
ATOM      1  C   LIG    1       23.747  41.177 211.864  0.00  0.00    +0.248 C 
ATOM      2  N   LIG    1       22.522  40.578 211.856  0.00  0.00    -0.307 N 
ATOM      3  H   LIG    1       21.841  40.961 211.178  0.00  0.00    +0.149 HD
ATOM      4  O   LIG    1       24.477  40.903 212.814  0.00  0.00    -0.270 OA
ENDROOT
BRANCH   1   9
ATOM      5  C   LIG    1       25.010  43.876 208.773  0.00  0.00    +0.049 A 
ATOM      6  C   LIG    1       25.420  44.051 210.111  0.00  0.00    +0.063 A 
ATOM      7 CL   LIG    1       26.469  45.360 210.550  0.00  0.00    -0.082 Cl
ATOM      8  C   LIG    1       24.992  43.163 211.090  0.00  0.00    +0.038 A 
ATOM      9  C   LIG    1       24.149  42.080 210.778  0.00  0.00    +0.080 A 
ATOM     10  C   LIG    1       23.735  41.935 209.431  0.00  0.00    +0.134 A 
ATOM     11  C   LIG    1       24.161  42.822 208.439  0.00  0.00    +0.070 A 
BRANCH   5  13
ATOM     12  C   LIG    1       24.688  46.002 207.528  0.00  0.00    +0.125 C 
ATOM     13  N   LIG    1       25.455  44.780 207.789  0.00  0.00    -0.346 N 
ATOM     14  H   LIG    1       25.757  44.293 206.925  0.00  0.00    +0.146 HD
ENDBRANCH   5  13
BRANCH  10  15
ATOM     15  O   LIG    1       22.882  40.903 209.075  0.00  0.00    -0.494 OA
ATOM     16  C   LIG    1       21.459  40.958 208.821  0.00  0.00    +0.277 C 
ENDBRANCH  10  15
ENDBRANCH   1   9
BRANCH   2  17
ATOM     17  C   LIG    1       21.895  39.969 213.031  0.00  0.00    +0.091 C 
ATOM     18  C   LIG    1       20.359  40.138 212.993  0.00  0.00    +0.074 C 
ATOM     19  C   LIG    1       19.931  41.576 212.648  0.00  0.00    +0.026 C 
ATOM     20  N   LIG    1       19.937  39.259 211.895  0.00  0.00    -0.294 NA
ATOM     21  C   LIG    1       20.926  38.159 211.768  0.00  0.00    +0.087 C 
ATOM     22  C   LIG    1       22.002  38.463 212.831  0.00  0.00    +0.039 C 
BRANCH  20  23
ATOM     23  C   LIG    1       18.560  38.755 212.074  0.00  0.00    +0.120 C 
BRANCH  23  24
ATOM     24  C   LIG    1       18.099  38.329 210.691  0.00  0.00    -0.033 A 
ATOM     25  C   LIG    1       17.609  37.043 210.465  0.00  0.00    +0.005 A 
ATOM     26  C   LIG    1       17.184  36.666 209.194  0.00  0.00    +0.000 A 
ATOM     27  C   LIG    1       17.247  37.574 208.141  0.00  0.00    +0.000 A 
ATOM     28  C   LIG    1       17.736  38.858 208.360  0.00  0.00    +0.000 A 
ATOM     29  C   LIG    1       18.160  39.232 209.630  0.00  0.00    +0.005 A 
ENDBRANCH  23  24
ENDBRANCH  20  23
ENDBRANCH   2  17
TORSDOF 6
ENDMDL
MODEL 6
REMARK VINA RESULT:      -6.7      1.812      3.286
REMARK  Name = ZINC000000538069
REMARK                            x       y       z     vdW  Elec       q    Type
REMARK                         _______ _______ _______ _____ _____    ______ ____
ROOT
ATOM      1  C   LIG    1       20.320  47.462 187.822  0.00  0.00    +0.248 C 
ATOM      2  N   LIG    1       20.544  47.709 186.500  0.00  0.00    -0.307 N 
ATOM      3  H   LIG    1       21.348  47.212 186.081  0.00  0.00    +0.149 HD
ATOM      4  O   LIG    1       19.534  48.217 188.388  0.00  0.00    -0.270 OA
ENDROOT
BRANCH   1   9
ATOM      5  C   LIG    1       22.180  44.203 189.908  0.00  0.00    +0.049 A 
ATOM      6  C   LIG    1       21.270  45.064 190.557  0.00  0.00    +0.063 A 
ATOM      7 CL   LIG    1       20.857  44.821 192.223  0.00  0.00    -0.082 Cl
ATOM      8  C   LIG    1       20.688  46.112 189.856  0.00  0.00    +0.038 A 
ATOM      9  C   LIG    1       20.984  46.341 188.499  0.00  0.00    +0.080 A 
ATOM     10  C   LIG    1       21.915  45.475 187.875  0.00  0.00    +0.134 A 
ATOM     11  C   LIG    1       22.506  44.418 188.570  0.00  0.00    +0.070 A 
BRANCH   5  13
ATOM     12  C   LIG    1       24.046  43.341 191.306  0.00  0.00    +0.125 C 
ATOM     13  N   LIG    1       22.760  43.141 190.628  0.00  0.00    -0.346 N 
ATOM     14  H   LIG    1       22.707  42.246 190.107  0.00  0.00    +0.146 HD
ENDBRANCH   5  13
BRANCH  10  15
ATOM     15  O   LIG    1       22.265  45.674 186.549  0.00  0.00    -0.494 OA
ATOM     16  C   LIG    1       22.911  44.753 185.639  0.00  0.00    +0.277 C 
ENDBRANCH  10  15
ENDBRANCH   1   9
BRANCH   2  17
ATOM     17  C   LIG    1       20.232  48.977 185.834  0.00  0.00    +0.091 C 
ATOM     18  C   LIG    1       21.148  49.204 184.611  0.00  0.00    +0.074 C 
ATOM     19  C   LIG    1       22.631  48.934 184.926  0.00  0.00    +0.026 C 
ATOM     20  N   LIG    1       20.696  48.196 183.643  0.00  0.00    -0.294 NA
ATOM     21  C   LIG    1       19.264  47.902 183.905  0.00  0.00    +0.087 C 
ATOM     22  C   LIG    1       18.897  48.763 185.131  0.00  0.00    +0.039 C 
BRANCH  20  23
ATOM     23  C   LIG    1       20.935  48.611 182.245  0.00  0.00    +0.120 C 
BRANCH  23  24
ATOM     24  C   LIG    1       20.410  50.033 182.147  0.00  0.00    -0.033 A 
ATOM     25  C   LIG    1       19.070  50.282 181.854  0.00  0.00    +0.005 A 
ATOM     26  C   LIG    1       18.599  51.590 181.773  0.00  0.00    +0.000 A 
ATOM     27  C   LIG    1       19.468  52.657 181.986  0.00  0.00    +0.000 A 
ATOM     28  C   LIG    1       20.805  52.415 182.279  0.00  0.00    +0.000 A 
ATOM     29  C   LIG    1       21.274  51.108 182.358  0.00  0.00    +0.005 A 
ENDBRANCH  23  24
ENDBRANCH  20  23
ENDBRANCH   2  17
TORSDOF 6
ENDMDL
MODEL 7
REMARK VINA RESULT:      -6.5      2.082      3.200
REMARK  Name = ZINC000000538069
REMARK                            x       y       z     vdW  Elec       q    Type
REMARK                         _______ _______ _______ _____ _____    ______ ____
ROOT
ATOM      1  C   LIG    1       20.393  47.182 188.166  0.00  0.00    +0.248 C 
ATOM      2  N   LIG    1       20.638  47.429 186.848  0.00  0.00    -0.307 N 
ATOM      3  H   LIG    1       21.476  46.969 186.455  0.00  0.00    +0.149 HD
ATOM      4  O   LIG    1       19.555  47.902 188.705  0.00  0.00    -0.270 OA
ENDROOT
BRANCH   1   9
ATOM      5  C   LIG    1       22.507  43.992 190.114  0.00  0.00    +0.049 A 
ATOM      6  C   LIG    1       22.596  44.187 188.720  0.00  0.00    +0.063 A 
ATOM      7 CL   LIG    1       23.583  43.148 187.744  0.00  0.00    -0.082 Cl
ATOM      8  C   LIG    1       21.897  45.225 188.118  0.00  0.00    +0.038 A 
ATOM      9  C   LIG    1       21.092  46.100 188.871  0.00  0.00    +0.080 A 
ATOM     10  C   LIG    1       21.003  45.874 190.267  0.00  0.00    +0.134 A 
ATOM     11  C   LIG    1       21.702  44.833 190.882  0.00  0.00    +0.070 A 
BRANCH   5  13
ATOM     12  C   LIG    1       23.375  42.902 192.171  0.00  0.00    +0.125 C 
ATOM     13  N   LIG    1       23.224  42.939 190.713  0.00  0.00    -0.346 N 
ATOM     14  H   LIG    1       24.103  42.731 190.204  0.00  0.00    +0.146 HD
ENDBRANCH   5  13
BRANCH  10  15
ATOM     15  O   LIG    1       20.201  46.688 191.051  0.00  0.00    -0.494 OA
ATOM     16  C   LIG    1       19.921  46.582 192.466  0.00  0.00    +0.277 C 
ENDBRANCH  10  15
ENDBRANCH   1   9
BRANCH   2  17
ATOM     17  C   LIG    1       20.282  48.674 186.163  0.00  0.00    +0.091 C 
ATOM     18  C   LIG    1       21.099  48.847 184.863  0.00  0.00    +0.074 C 
ATOM     19  C   LIG    1       22.601  48.575 185.068  0.00  0.00    +0.026 C 
ATOM     20  N   LIG    1       20.564  47.809 183.972  0.00  0.00    -0.294 NA
ATOM     21  C   LIG    1       19.157  47.539 184.358  0.00  0.00    +0.087 C 
ATOM     22  C   LIG    1       18.895  48.448 185.576  0.00  0.00    +0.039 C 
BRANCH  20  23
ATOM     23  C   LIG    1       20.693  48.170 182.545  0.00  0.00    +0.120 C 
BRANCH  23  24
ATOM     24  C   LIG    1       20.272  49.627 182.454  0.00  0.00    -0.033 A 
ATOM     25  C   LIG    1       18.928  49.976 182.324  0.00  0.00    +0.005 A 
ATOM     26  C   LIG    1       18.554  51.315 182.247  0.00  0.00    +0.000 A 
ATOM     27  C   LIG    1       19.523  52.313 182.302  0.00  0.00    +0.000 A 
ATOM     28  C   LIG    1       20.864  51.971 182.432  0.00  0.00    +0.000 A 
ATOM     29  C   LIG    1       21.237  50.633 182.507  0.00  0.00    +0.005 A 
ENDBRANCH  23  24
ENDBRANCH  20  23
ENDBRANCH   2  17
TORSDOF 6
ENDMDL
MODEL 8
REMARK VINA RESULT:      -6.5      4.694      7.090
REMARK  Name = ZINC000000538069
REMARK                            x       y       z     vdW  Elec       q    Type
REMARK                         _______ _______ _______ _____ _____    ______ ____
ROOT
ATOM      1  C   LIG    1       22.794  50.216 180.670  0.00  0.00    +0.248 C 
ATOM      2  N   LIG    1       21.824  50.607 181.545  0.00  0.00    -0.307 N 
ATOM      3  H   LIG    1       21.717  50.019 182.388  0.00  0.00    +0.149 HD
ATOM      4  O   LIG    1       22.773  50.751 179.564  0.00  0.00    -0.270 OA
ENDROOT
BRANCH   1   9
ATOM      5  C   LIG    1       25.812  47.341 181.703  0.00  0.00    +0.049 A 
ATOM      6  C   LIG    1       25.819  47.994 180.453  0.00  0.00    +0.063 A 
ATOM      7 CL   LIG    1       27.065  47.668 179.293  0.00  0.00    -0.082 Cl
ATOM      8  C   LIG    1       24.827  48.917 180.146  0.00  0.00    +0.038 A 
ATOM      9  C   LIG    1       23.802  49.221 181.061  0.00  0.00    +0.080 A 
ATOM     10  C   LIG    1       23.804  48.540 182.302  0.00  0.00    +0.134 A 
ATOM     11  C   LIG    1       24.797  47.611 182.621  0.00  0.00    +0.070 A 
BRANCH   5  13
ATOM     12  C   LIG    1       28.111  46.886 182.528  0.00  0.00    +0.125 C 
ATOM     13  N   LIG    1       26.825  46.412 182.005  0.00  0.00    -0.346 N 
ATOM     14  H   LIG    1       26.924  45.694 181.263  0.00  0.00    +0.146 HD
ENDBRANCH   5  13
BRANCH  10  15
ATOM     15  O   LIG    1       22.801  48.781 183.227  0.00  0.00    -0.494 OA
ATOM     16  C   LIG    1       22.926  49.040 184.645  0.00  0.00    +0.277 C 
ENDBRANCH  10  15
ENDBRANCH   1   9
BRANCH   2  17
ATOM     17  C   LIG    1       20.591  51.295 181.154  0.00  0.00    +0.091 C 
ATOM     18  C   LIG    1       19.353  50.620 181.786  0.00  0.00    +0.074 C 
ATOM     19  C   LIG    1       19.371  49.088 181.630  0.00  0.00    +0.026 C 
ATOM     20  N   LIG    1       19.474  50.935 183.216  0.00  0.00    -0.294 NA
ATOM     21  C   LIG    1       20.222  52.210 183.354  0.00  0.00    +0.087 C 
ATOM     22  C   LIG    1       20.589  52.616 181.912  0.00  0.00    +0.039 C 
BRANCH  20  23
ATOM     23  C   LIG    1       18.163  50.979 183.896  0.00  0.00    +0.120 C 
BRANCH  23  24
ATOM     24  C   LIG    1       18.400  50.387 185.275  0.00  0.00    -0.033 A 
ATOM     25  C   LIG    1       17.783  50.930 186.402  0.00  0.00    +0.005 A 
ATOM     26  C   LIG    1       18.004  50.374 187.660  0.00  0.00    +0.000 A 
ATOM     27  C   LIG    1       18.843  49.272 187.797  0.00  0.00    +0.000 A 
ATOM     28  C   LIG    1       19.461  48.727 186.677  0.00  0.00    +0.000 A 
ATOM     29  C   LIG    1       19.240  49.283 185.421  0.00  0.00    +0.005 A 
ENDBRANCH  23  24
ENDBRANCH  20  23
ENDBRANCH   2  17
TORSDOF 6
ENDMDL
MODEL 9
REMARK VINA RESULT:      -6.4     23.086     25.087
REMARK  Name = ZINC000000538069
REMARK                            x       y       z     vdW  Elec       q    Type
REMARK                         _______ _______ _______ _____ _____    ______ ____
ROOT
ATOM      1  C   LIG    1       22.895  49.641 211.805  0.00  0.00    +0.248 C 
ATOM      2  N   LIG    1       23.698  49.189 210.801  0.00  0.00    -0.307 N 
ATOM      3  H   LIG    1       23.308  48.423 210.226  0.00  0.00    +0.149 HD
ATOM      4  O   LIG    1       23.429  50.370 212.638  0.00  0.00    -0.270 OA
ENDROOT
BRANCH   1   9
ATOM      5  C   LIG    1       18.712  48.690 212.000  0.00  0.00    +0.049 A 
ATOM      6  C   LIG    1       19.230  49.848 212.618  0.00  0.00    +0.063 A 
ATOM      7 CL   LIG    1       18.185  50.940 213.466  0.00  0.00    -0.082 Cl
ATOM      8  C   LIG    1       20.589  50.127 212.541  0.00  0.00    +0.038 A 
ATOM      9  C   LIG    1       21.474  49.275 211.854  0.00  0.00    +0.080 A 
ATOM     10  C   LIG    1       20.934  48.109 211.258  0.00  0.00    +0.134 A 
ATOM     11  C   LIG    1       19.570  47.820 211.328  0.00  0.00    +0.070 A 
BRANCH   5  13
ATOM     12  C   LIG    1       16.859  47.307 212.909  0.00  0.00    +0.125 C 
ATOM     13  N   LIG    1       17.333  48.421 212.081  0.00  0.00    -0.346 N 
ATOM     14  H   LIG    1       16.875  48.466 211.152  0.00  0.00    +0.146 HD
ENDBRANCH   5  13
BRANCH  10  15
ATOM     15  O   LIG    1       21.766  47.221 210.594  0.00  0.00    -0.494 OA
ATOM     16  C   LIG    1       21.931  45.801 210.819  0.00  0.00    +0.277 C 
ENDBRANCH  10  15
ENDBRANCH   1   9
BRANCH   2  17
ATOM     17  C   LIG    1       25.163  49.190 210.852  0.00  0.00    +0.091 C 
ATOM     18  C   LIG    1       25.708  47.789 211.205  0.00  0.00    +0.074 C 
ATOM     19  C   LIG    1       24.975  47.152 212.400  0.00  0.00    +0.026 C 
ATOM     20  N   LIG    1       25.416  46.987 210.009  0.00  0.00    -0.294 NA
ATOM     21  C   LIG    1       25.389  47.893 208.833  0.00  0.00    +0.087 C 
ATOM     22  C   LIG    1       25.633  49.303 209.408  0.00  0.00    +0.039 C 
BRANCH  20  23
ATOM     23  C   LIG    1       26.367  45.870 209.833  0.00  0.00    +0.120 C 
BRANCH  23  24
ATOM     24  C   LIG    1       25.510  44.623 209.704  0.00  0.00    -0.033 A 
ATOM     25  C   LIG    1       25.245  43.819 210.812  0.00  0.00    +0.005 A 
ATOM     26  C   LIG    1       24.453  42.681 210.682  0.00  0.00    +0.000 A 
ATOM     27  C   LIG    1       23.922  42.341 209.441  0.00  0.00    +0.000 A 
ATOM     28  C   LIG    1       24.183  43.139 208.332  0.00  0.00    +0.000 A 
ATOM     29  C   LIG    1       24.975  44.274 208.463  0.00  0.00    +0.005 A 
ENDBRANCH  23  24
ENDBRANCH  20  23
ENDBRANCH   2  17
TORSDOF 6
ENDMDL
