REMARK VINA RESULT:      -7.7      0.000      0.000
REMARK  Name = ZINC000078751741
REMARK                            x       y       z     vdW  Elec       q    Type
REMARK                         _______ _______ _______ _____ _____    ______ ____
ROOT
ATOM      1  S   LIG    1       27.000  43.078 181.695  0.00  0.00    +0.073 S 
ATOM      2  O   LIG    1       27.862  43.664 180.735  0.00  0.00    -0.150 OA
ATOM      3  O   LIG    1       27.497  41.975 182.433  0.00  0.00    -0.150 OA
ENDROOT
BRANCH   1   6
ATOM      4  C   LIG    1       25.081  44.781 179.532  0.00  0.00    +0.053 C 
ATOM      5  C   LIG    1       24.766  43.372 179.987  0.00  0.00    +0.014 A 
ATOM      6  C   LIG    1       25.477  42.591 180.871  0.00  0.00    +0.119 A 
ATOM      7  C   LIG    1       24.875  41.335 181.064  0.00  0.00    +0.051 A 
ATOM      8  C   LIG    1       23.729  41.146 180.325  0.00  0.00    +0.098 A 
ATOM      9  S   LIG    1       23.370  42.557 179.386  0.00  0.00    -0.085 S 
BRANCH   8  10
ATOM     10  C   LIG    1       22.896  39.961 180.282  0.00  0.00    +0.344 C 
ATOM     11  O   LIG    1       21.811  39.892 179.743  0.00  0.00    -0.245 OA
BRANCH  10  12
ATOM     12  O   LIG    1       23.338  38.857 180.873  0.00  0.00    -0.477 OA
ATOM     13  H   LIG    1       22.905  38.822 181.742  0.00  0.00    +0.295 HD
ENDBRANCH  10  12
ENDBRANCH   8  10
ENDBRANCH   1   6
BRANCH   1  14
ATOM     14  N   LIG    1       26.549  44.249 182.772  0.00  0.00    -0.213 N 
ATOM     15  H   LIG    1       26.170  44.937 182.109  0.00  0.00    +0.174 HD
BRANCH  14  16
ATOM     16  C   LIG    1       25.546  43.836 183.659  0.00  0.00    +0.084 A 
ATOM     17  C   LIG    1       24.246  44.336 183.553  0.00  0.00    +0.146 A 
ATOM     18  F   LIG    1       23.961  45.254 182.604  0.00  0.00    -0.204 F 
ATOM     19  C   LIG    1       23.237  43.911 184.403  0.00  0.00    +0.041 A 
ATOM     20  C   LIG    1       23.533  42.972 185.392  0.00  0.00    +0.015 A 
ATOM     21  C   LIG    1       24.839  42.467 185.535  0.00  0.00    +0.057 A 
ATOM     22  C   LIG    1       25.847  42.924 184.673  0.00  0.00    +0.039 A 
BRANCH  21  23
ATOM     23  C   LIG    1       25.183  41.447 186.631  0.00  0.00    +0.417 C 
ATOM     24  F   LIG    1       25.893  40.424 186.128  0.00  0.00    -0.166 F 
ATOM     25  F   LIG    1       24.046  40.974 187.162  0.00  0.00    -0.166 F 
ATOM     26  F   LIG    1       25.904  42.044 187.601  0.00  0.00    -0.166 F 
ENDBRANCH  21  23
ENDBRANCH  14  16
ENDBRANCH   1  14
TORSDOF 6
