REMARK VINA RESULT:      -7.3     24.034     25.967
REMARK  Name = ZINC000006087320
REMARK                            x       y       z     vdW  Elec       q    Type
REMARK                         _______ _______ _______ _____ _____    ______ ____
ROOT
ATOM      1  C   LIG    1       29.484  16.601 195.144  0.00  0.00    +0.222 C 
ENDROOT
BRANCH   1   2
ATOM      2  N   LIG    1       29.578  17.329 196.433  0.00  0.00    -0.290 N 
ATOM      3  C   LIG    1       29.083  18.615 196.553  0.00  0.00    +0.262 A 
ATOM      4  O   LIG    1       28.580  19.127 195.548  0.00  0.00    -0.267 OA
ATOM      5  C   LIG    1       29.202  19.276 197.835  0.00  0.00    +0.068 A 
ATOM      6  C   LIG    1       28.702  20.569 198.052  0.00  0.00    +0.035 A 
ATOM      7  C   LIG    1       28.843  21.167 199.299  0.00  0.00    +0.043 A 
ATOM      8 CL   LIG    1       28.227  22.762 199.563  0.00  0.00    -0.083 Cl
ATOM      9  C   LIG    1       29.481  20.489 200.341  0.00  0.00    +0.042 A 
ATOM     10  C   LIG    1       29.978  19.209 200.130  0.00  0.00    +0.068 A 
ATOM     11 CL   LIG    1       30.766  18.397 201.448  0.00  0.00    -0.081 Cl
ATOM     12  C   LIG    1       29.846  18.585 198.870  0.00  0.00    +0.096 A 
ATOM     13  N   LIG    1       30.348  17.291 198.630  0.00  0.00    -0.235 NA
ATOM     14  C   LIG    1       30.225  16.719 197.494  0.00  0.00    +0.203 A 
ENDBRANCH   1   2
BRANCH   1  17
ATOM     15  N   LIG    1       27.098  16.346 194.582  0.00  0.00    -0.284 N 
ATOM     16  H   LIG    1       27.264  17.280 194.165  0.00  0.00    +0.155 HD
ATOM     17  C   LIG    1       28.204  15.782 195.171  0.00  0.00    +0.237 C 
ATOM     18  O   LIG    1       28.172  14.679 195.672  0.00  0.00    -0.274 OA
BRANCH  15  20
ATOM     19  C   LIG    1       25.318  15.416 193.232  0.00  0.00    -0.026 A 
ATOM     20  C   LIG    1       25.768  15.860 194.488  0.00  0.00    +0.037 A 
ATOM     21  C   LIG    1       24.932  15.795 195.608  0.00  0.00    +0.023 A 
ATOM     22  C   LIG    1       23.636  15.312 195.474  0.00  0.00    +0.002 A 
ATOM     23  C   LIG    1       23.175  14.887 194.232  0.00  0.00    +0.000 A 
ATOM     24  C   LIG    1       24.013  14.938 193.121  0.00  0.00    +0.005 A 
BRANCH  19  26
ATOM     25  C   LIG    1       25.509  14.542 190.947  0.00  0.00    +0.009 C 
ATOM     26  C   LIG    1       26.191  15.447 191.983  0.00  0.00    +0.033 C 
ENDBRANCH  19  26
ENDBRANCH  15  20
ENDBRANCH   1  17
TORSDOF 4
