REMARK VINA RESULT:      -7.4     13.137     13.889
REMARK  Name = ZINC000006087320
REMARK                            x       y       z     vdW  Elec       q    Type
REMARK                         _______ _______ _______ _____ _____    ______ ____
ROOT
ATOM      1  C   LIG    1       27.556  31.252 204.612  0.00  0.00    +0.222 C 
ENDROOT
BRANCH   1   2
ATOM      2  N   LIG    1       27.634  32.114 203.409  0.00  0.00    -0.290 N 
ATOM      3  C   LIG    1       26.566  32.198 202.532  0.00  0.00    +0.262 A 
ATOM      4  O   LIG    1       25.567  31.519 202.786  0.00  0.00    -0.267 OA
ATOM      5  C   LIG    1       26.699  33.056 201.374  0.00  0.00    +0.068 A 
ATOM      6  C   LIG    1       25.657  33.221 200.450  0.00  0.00    +0.035 A 
ATOM      7  C   LIG    1       25.830  34.052 199.349  0.00  0.00    +0.043 A 
ATOM      8 CL   LIG    1       24.543  34.252 198.210  0.00  0.00    -0.083 Cl
ATOM      9  C   LIG    1       27.038  34.726 199.155  0.00  0.00    +0.042 A 
ATOM     10  C   LIG    1       28.073  34.565 200.067  0.00  0.00    +0.068 A 
ATOM     11 CL   LIG    1       29.561  35.419 199.793  0.00  0.00    -0.081 Cl
ATOM     12  C   LIG    1       27.917  33.724 201.191  0.00  0.00    +0.096 A 
ATOM     13  N   LIG    1       28.954  33.540 202.125  0.00  0.00    -0.235 NA
ATOM     14  C   LIG    1       28.815  32.785 203.148  0.00  0.00    +0.203 A 
ENDBRANCH   1   2
BRANCH   1  17
ATOM     15  N   LIG    1       27.395  28.824 205.004  0.00  0.00    -0.284 N 
ATOM     16  H   LIG    1       26.895  29.157 205.847  0.00  0.00    +0.155 HD
ATOM     17  C   LIG    1       27.840  29.824 204.174  0.00  0.00    +0.237 C 
ATOM     18  O   LIG    1       28.414  29.587 203.133  0.00  0.00    -0.274 OA
BRANCH  15  20
ATOM     19  C   LIG    1       26.391  26.622 205.007  0.00  0.00    -0.026 A 
ATOM     20  C   LIG    1       27.546  27.417 204.897  0.00  0.00    +0.037 A 
ATOM     21  C   LIG    1       28.795  26.831 204.663  0.00  0.00    +0.023 A 
ATOM     22  C   LIG    1       28.900  25.449 204.563  0.00  0.00    +0.002 A 
ATOM     23  C   LIG    1       27.766  24.652 204.688  0.00  0.00    +0.000 A 
ATOM     24  C   LIG    1       26.522  25.238 204.907  0.00  0.00    +0.005 A 
BRANCH  19  26
ATOM     25  C   LIG    1       24.020  26.345 204.442  0.00  0.00    +0.009 C 
ATOM     26  C   LIG    1       25.004  27.208 205.244  0.00  0.00    +0.033 C 
ENDBRANCH  19  26
ENDBRANCH  15  20
ENDBRANCH   1  17
TORSDOF 4
