REMARK VINA RESULT:      -7.6      2.698      3.694
REMARK  Name = ZINC000049399659
REMARK                            x       y       z     vdW  Elec       q    Type
REMARK                         _______ _______ _______ _____ _____    ______ ____
ROOT
ATOM      1  C   LIG    1       21.129  46.353 183.736  0.00  0.00    +0.173 C 
ENDROOT
BRANCH   1   4
ATOM      2  N   LIG    1       20.396  48.680 183.423  0.00  0.00    -0.282 N 
ATOM      3  H   LIG    1       20.226  48.622 184.438  0.00  0.00    +0.155 HD
ATOM      4  C   LIG    1       20.791  47.511 182.822  0.00  0.00    +0.228 C 
ATOM      5  O   LIG    1       20.854  47.415 181.614  0.00  0.00    -0.275 OA
BRANCH   2   7
ATOM      6  C   LIG    1       21.035  50.955 182.989  0.00  0.00    +0.141 A 
ATOM      7  C   LIG    1       20.070  49.944 182.852  0.00  0.00    +0.077 A 
ATOM      8  C   LIG    1       18.879  50.198 182.170  0.00  0.00    +0.047 A 
ATOM      9  C   LIG    1       18.654  51.471 181.642  0.00  0.00    +0.043 A 
ATOM     10 CL   LIG    1       17.182  51.804 180.795  0.00  0.00    -0.083 Cl
ATOM     11  C   LIG    1       19.609  52.482 181.786  0.00  0.00    +0.024 A 
ATOM     12  C   LIG    1       20.802  52.225 182.459  0.00  0.00    +0.049 A 
BRANCH   6  14
ATOM     13  C   LIG    1       22.608  51.190 184.947  0.00  0.00    +0.277 C 
ATOM     14  O   LIG    1       22.222  50.653 183.660  0.00  0.00    -0.493 OA
ENDBRANCH   6  14
ENDBRANCH   2   7
ENDBRANCH   1   4
BRANCH   1  15
ATOM     15  S   LIG    1       22.369  46.981 184.931  0.00  0.00    -0.077 S 
BRANCH  15  16
ATOM     16  C   LIG    1       21.507  46.920 186.436  0.00  0.00    +0.190 A 
ATOM     17  N   LIG    1       22.002  46.148 187.405  0.00  0.00    -0.207 NA
ATOM     18  C   LIG    1       21.351  46.100 188.554  0.00  0.00    +0.126 A 
ATOM     19  C   LIG    1       20.185  46.832 188.751  0.00  0.00    +0.063 A 
ATOM     20  C   LIG    1       19.720  47.604 187.709  0.00  0.00    +0.117 A 
ATOM     21  N   LIG    1       20.377  47.644 186.558  0.00  0.00    -0.230 NA
BRANCH  18  22
ATOM     22  N   LIG    1       21.857  45.302 189.574  0.00  0.00    -0.315 N 
ATOM     23  C   LIG    1       20.981  45.109 190.745  0.00  0.00    +0.106 C 
ATOM     24  C   LIG    1       21.915  44.825 191.936  0.00  0.00    +0.019 C 
ATOM     25  C   LIG    1       22.714  43.549 191.618  0.00  0.00    +0.003 C 
ATOM     26  C   LIG    1       23.554  43.766 190.348  0.00  0.00    +0.019 C 
ATOM     27  C   LIG    1       22.599  44.083 189.182  0.00  0.00    +0.106 C 
ENDBRANCH  18  22
ENDBRANCH  15  16
ENDBRANCH   1  15
TORSDOF 6
