REMARK VINA RESULT:      -8.4      4.206      9.223
REMARK  Name = ZINC000006083766
REMARK                            x       y       z     vdW  Elec       q    Type
REMARK                         _______ _______ _______ _____ _____    ______ ____
ROOT
ATOM      1  O   LIG    1       34.934  18.775 186.541  0.00  0.00    -0.468 OA
ENDROOT
BRANCH   1   2
ATOM      2  C   LIG    1       36.240  18.836 186.178  0.00  0.00    +0.227 A 
ATOM      3  C   LIG    1       37.226  18.291 187.018  0.00  0.00    +0.073 A 
ATOM      4  C   LIG    1       37.151  17.632 188.279  0.00  0.00    -0.023 A 
ATOM      5  C   LIG    1       35.861  17.364 189.040  0.00  0.00    +0.037 C 
ATOM      6  C   LIG    1       36.157  16.349 190.160  0.00  0.00    +0.005 C 
ATOM      7  C   LIG    1       37.426  16.720 190.946  0.00  0.00    +0.005 C 
ATOM      8  C   LIG    1       38.679  16.585 190.064  0.00  0.00    +0.043 C 
ATOM      9  C   LIG    1       38.383  17.293 188.759  0.00  0.00    -0.004 A 
ATOM     10  S   LIG    1       39.668  17.740 187.680  0.00  0.00    -0.073 S 
ATOM     11  C   LIG    1       38.530  18.415 186.567  0.00  0.00    +0.116 A 
ATOM     12  N   LIG    1       38.843  19.010 185.391  0.00  0.00    -0.228 NA
ATOM     13  C   LIG    1       37.853  19.483 184.674  0.00  0.00    +0.226 A 
ATOM     14  N   LIG    1       36.544  19.416 185.036  0.00  0.00    -0.201 NA
ENDBRANCH   1   2
BRANCH   1  15
ATOM     15  C   LIG    1       33.917  19.646 185.967  0.00  0.00    +0.310 C 
BRANCH  15  17
ATOM     16  O   LIG    1       31.993  19.008 187.200  0.00  0.00    -0.288 OA
ATOM     17  C   LIG    1       32.553  18.979 186.120  0.00  0.00    +0.200 C 
BRANCH  17  18
ATOM     18  C   LIG    1       31.904  18.354 184.967  0.00  0.00    +0.025 A 
ATOM     19  C   LIG    1       30.520  18.090 184.954  0.00  0.00    +0.061 A 
ATOM     20  C   LIG    1       29.940  17.497 183.842  0.00  0.00    +0.163 A 
ATOM     21  O   LIG    1       28.581  17.268 183.830  0.00  0.00    -0.485 OA
ATOM     22  C   LIG    1       27.944  16.990 182.545  0.00  0.00    +0.270 C 
ATOM     23  C   LIG    1       28.807  15.935 181.834  0.00  0.00    +0.270 C 
ATOM     24  O   LIG    1       30.133  16.519 181.658  0.00  0.00    -0.485 OA
ATOM     25  C   LIG    1       30.718  17.139 182.736  0.00  0.00    +0.162 A 
ATOM     26  C   LIG    1       32.082  17.399 182.726  0.00  0.00    +0.050 A 
ATOM     27  C   LIG    1       32.669  18.001 183.836  0.00  0.00    +0.015 A 
ENDBRANCH  17  18
ENDBRANCH  15  17
ENDBRANCH   1  15
TORSDOF 4
