REMARK VINA RESULT:      -6.8      5.592      9.170
REMARK  Name = ZINC000006084756
REMARK                            x       y       z     vdW  Elec       q    Type
REMARK                         _______ _______ _______ _____ _____    ______ ____
ROOT
ATOM      1  C   LIG    1       23.644  41.517 210.689  0.00  0.00    +0.125 C 
ENDROOT
BRANCH   1   2
ATOM      2  N   LIG    1       24.269  41.913 211.972  0.00  0.00    -0.336 N 
ATOM      3  H   LIG    1       23.935  41.370 212.784  0.00  0.00    +0.147 HD
BRANCH   2   4
ATOM      4  C   LIG    1       25.623  42.239 212.032  0.00  0.00    +0.079 C 
ATOM      5  S   LIG    1       26.744  41.086 212.526  0.00  0.00    -0.035 S 
BRANCH   4   6
ATOM      6  C   LIG    1       25.968  43.609 211.636  0.00  0.00    +0.003 A 
ATOM      7  C   LIG    1       25.550  44.693 212.422  0.00  0.00    +0.012 A 
ATOM      8  C   LIG    1       25.865  45.998 212.063  0.00  0.00    +0.024 A 
ATOM      9  C   LIG    1       26.607  46.238 210.906  0.00  0.00    +0.033 A 
ATOM     10  C   LIG    1       27.023  45.173 210.101  0.00  0.00    +0.024 A 
ATOM     11  C   LIG    1       26.707  43.870 210.468  0.00  0.00    +0.012 A 
BRANCH   9  12
ATOM     12  N   LIG    1       26.880  47.591 210.591  0.00  0.00    -0.286 N 
ATOM     13  H   LIG    1       27.849  47.814 210.341  0.00  0.00    +0.155 HD
ATOM     14  C   LIG    1       26.002  48.641 210.521  0.00  0.00    +0.214 C 
ATOM     15  O   LIG    1       24.815  48.494 210.710  0.00  0.00    -0.276 OA
ATOM     16  C   LIG    1       26.599  49.976 210.172  0.00  0.00    +0.109 C 
ENDBRANCH   9  12
ENDBRANCH   4   6
ENDBRANCH   2   4
ENDBRANCH   1   2
BRANCH   1  17
ATOM     17  C   LIG    1       22.456  42.489 210.411  0.00  0.00    +0.104 C 
BRANCH  17  21
ATOM     18  C   LIG    1       23.833  45.999 208.296  0.00  0.00    +0.120 A 
ATOM     19  C   LIG    1       24.157  44.745 207.794  0.00  0.00    +0.046 A 
ATOM     20  C   LIG    1       23.708  43.604 208.449  0.00  0.00    +0.009 A 
ATOM     21  C   LIG    1       22.934  43.709 209.614  0.00  0.00    -0.029 A 
ATOM     22  C   LIG    1       22.599  44.979 210.090  0.00  0.00    +0.009 A 
ATOM     23  C   LIG    1       23.046  46.125 209.440  0.00  0.00    +0.046 A 
BRANCH  18  25
ATOM     24  C   LIG    1       25.686  47.240 207.163  0.00  0.00    +0.277 C 
ATOM     25  O   LIG    1       24.321  47.093 207.618  0.00  0.00    -0.495 OA
ENDBRANCH  18  25
ENDBRANCH  17  21
BRANCH  17  26
ATOM     26  N   LIG    1       21.336  41.836 209.672  0.00  0.00    -0.294 NA
ATOM     27  C   LIG    1       20.120  41.640 210.482  0.00  0.00    +0.085 C 
ATOM     28  C   LIG    1       19.696  40.207 210.146  0.00  0.00    +0.017 C 
ATOM     29  C   LIG    1       20.265  40.014 208.744  0.00  0.00    +0.017 C 
ATOM     30  C   LIG    1       21.652  40.625 208.905  0.00  0.00    +0.085 C 
ENDBRANCH  17  26
ENDBRANCH   1  17
TORSDOF 8
