REMARK VINA RESULT:      -7.2      4.918      6.962
REMARK  Name = ZINC000006087400
REMARK                            x       y       z     vdW  Elec       q    Type
REMARK                         _______ _______ _______ _____ _____    ______ ____
ROOT
ATOM      1  C   LIG    1       22.639  47.694 182.015  0.00  0.00    +0.214 C 
ENDROOT
BRANCH   1   7
ATOM      2  C   LIG    1       20.159  47.975 185.733  0.00  0.00    +0.010 C 
ATOM      3  C   LIG    1       20.248  49.516 185.684  0.00  0.00    +0.018 C 
ATOM      4  C   LIG    1       21.337  50.015 184.676  0.00  0.00    +0.115 C 
ATOM      5  C   LIG    1       21.258  49.360 183.292  0.00  0.00    +0.247 C 
ATOM      6  O   LIG    1       20.410  49.436 182.421  0.00  0.00    -0.273 OA
ATOM      7  N   LIG    1       22.387  48.615 183.128  0.00  0.00    -0.215 N 
ATOM      8  C   LIG    1       23.190  48.714 184.232  0.00  0.00    +0.310 C 
ATOM      9  O   LIG    1       24.232  48.108 184.403  0.00  0.00    -0.252 OA
ATOM     10  N   LIG    1       22.652  49.575 185.117  0.00  0.00    -0.285 N 
ATOM     11  H   LIG    1       22.958  49.541 186.096  0.00  0.00    +0.151 HD
ATOM     12  C   LIG    1       21.371  51.563 184.606  0.00  0.00    +0.035 C 
ATOM     13  C   LIG    1       19.975  52.101 184.238  0.00  0.00    +0.003 C 
ATOM     14  C   LIG    1       18.908  51.621 185.229  0.00  0.00    +0.000 C 
ATOM     15  C   LIG    1       18.873  50.089 185.290  0.00  0.00    +0.006 C 
ENDBRANCH   1   7
BRANCH   1  16
ATOM     16  C   LIG    1       22.162  46.307 182.451  0.00  0.00    +0.238 C 
ATOM     17  N   LIG    1       23.038  45.232 182.439  0.00  0.00    -0.267 N 
ATOM     18  O   LIG    1       21.011  46.119 182.820  0.00  0.00    -0.274 OA
BRANCH  17  19
ATOM     19  C   LIG    1       24.346  45.327 181.906  0.00  0.00    +0.010 C 
ATOM     20  C   LIG    1       24.425  45.490 180.399  0.00  0.00    +0.051 C 
ATOM     21  C   LIG    1       25.849  45.084 179.958  0.00  0.00    +0.006 C 
ATOM     22  C   LIG    1       26.850  45.899 180.802  0.00  0.00    +0.004 C 
ATOM     23  C   LIG    1       26.843  45.335 182.240  0.00  0.00    +0.029 C 
ATOM     24  C   LIG    1       25.408  45.280 182.730  0.00  0.00    -0.008 C 
ENDBRANCH  17  19
BRANCH  17  25
ATOM     25  C   LIG    1       22.583  43.919 182.930  0.00  0.00    +0.187 C 
BRANCH  25  26
ATOM     26  C   LIG    1       22.449  43.042 181.701  0.00  0.00    +0.122 A 
ATOM     27  O   LIG    1       23.282  41.980 181.513  0.00  0.00    -0.466 OA
ATOM     28  C   LIG    1       22.937  41.398 180.338  0.00  0.00    +0.195 A 
ATOM     29  C   LIG    1       21.904  42.073 179.786  0.00  0.00    +0.041 A 
ATOM     30  C   LIG    1       21.594  43.124 180.656  0.00  0.00    +0.046 A 
ENDBRANCH  25  26
ENDBRANCH  17  25
ENDBRANCH   1  16
TORSDOF 5
