REMARK VINA RESULT:      -7.1     28.287     30.991
REMARK  Name = ZINC000006087400
REMARK                            x       y       z     vdW  Elec       q    Type
REMARK                         _______ _______ _______ _____ _____    ______ ____
ROOT
ATOM      1  C   LIG    1       19.507  40.521 209.927  0.00  0.00    +0.214 C 
ENDROOT
BRANCH   1   7
ATOM      2  C   LIG    1       15.166  39.491 209.544  0.00  0.00    +0.010 C 
ATOM      3  C   LIG    1       15.517  37.987 209.529  0.00  0.00    +0.018 C 
ATOM      4  C   LIG    1       17.047  37.738 209.316  0.00  0.00    +0.115 C 
ATOM      5  C   LIG    1       17.952  38.571 210.232  0.00  0.00    +0.247 C 
ATOM      6  O   LIG    1       18.109  38.539 211.440  0.00  0.00    -0.273 OA
ATOM      7  N   LIG    1       18.650  39.433 209.443  0.00  0.00    -0.215 N 
ATOM      8  C   LIG    1       18.315  39.255 208.127  0.00  0.00    +0.310 C 
ATOM      9  O   LIG    1       18.727  39.925 207.198  0.00  0.00    -0.252 OA
ATOM     10  N   LIG    1       17.447  38.233 208.008  0.00  0.00    -0.285 N 
ATOM     11  H   LIG    1       16.879  38.157 207.156  0.00  0.00    +0.151 HD
ATOM     12  C   LIG    1       17.382  36.225 209.357  0.00  0.00    +0.035 C 
ATOM     13  C   LIG    1       16.892  35.617 210.685  0.00  0.00    +0.003 C 
ATOM     14  C   LIG    1       15.391  35.852 210.892  0.00  0.00    +0.000 C 
ATOM     15  C   LIG    1       15.065  37.350 210.857  0.00  0.00    +0.006 C 
ENDBRANCH   1   7
BRANCH   1  16
ATOM     16  C   LIG    1       20.958  40.054 209.794  0.00  0.00    +0.238 C 
ATOM     17  N   LIG    1       21.692  39.725 210.924  0.00  0.00    -0.267 N 
ATOM     18  O   LIG    1       21.496  39.957 208.700  0.00  0.00    -0.274 OA
BRANCH  17  19
ATOM     19  C   LIG    1       21.198  39.931 212.234  0.00  0.00    +0.010 C 
ATOM     20  C   LIG    1       20.922  41.376 212.607  0.00  0.00    +0.051 C 
ATOM     21  C   LIG    1       20.881  41.462 214.149  0.00  0.00    +0.006 C 
ATOM     22  C   LIG    1       19.872  40.408 214.649  0.00  0.00    +0.004 C 
ATOM     23  C   LIG    1       20.506  39.010 214.475  0.00  0.00    +0.029 C 
ATOM     24  C   LIG    1       20.995  38.876 213.045  0.00  0.00    -0.008 C 
ENDBRANCH  17  19
BRANCH  17  25
ATOM     25  C   LIG    1       23.065  39.209 210.774  0.00  0.00    +0.187 C 
BRANCH  25  26
ATOM     26  C   LIG    1       23.970  40.260 211.382  0.00  0.00    +0.122 A 
ATOM     27  O   LIG    1       23.996  41.527 210.880  0.00  0.00    -0.466 OA
ATOM     28  C   LIG    1       24.896  42.233 211.610  0.00  0.00    +0.195 A 
ATOM     29  C   LIG    1       25.434  41.434 212.558  0.00  0.00    +0.041 A 
ATOM     30  C   LIG    1       24.844  40.175 212.412  0.00  0.00    +0.046 A 
ENDBRANCH  25  26
ENDBRANCH  17  25
ENDBRANCH   1  16
TORSDOF 5
