MODEL 1
REMARK VINA RESULT:      -8.1      0.000      0.000
REMARK  Name = ZINC000022624335
REMARK                            x       y       z     vdW  Elec       q    Type
REMARK                         _______ _______ _______ _____ _____    ______ ____
ROOT
ATOM      1  C   LIG    1       35.257  20.319 187.349  0.00  0.00    +0.121 A 
ATOM      2  N   LIG    1       34.573  19.227 187.716  0.00  0.00    -0.238 NA
ATOM      3  C   LIG    1       33.538  18.835 186.971  0.00  0.00    +0.136 A 
ATOM      4  C   LIG    1       33.150  19.526 185.818  0.00  0.00    +0.052 A 
ATOM      5  C   LIG    1       33.861  20.657 185.417  0.00  0.00    +0.028 A 
ATOM      6  C   LIG    1       34.932  21.051 186.199  0.00  0.00    +0.045 A 
ENDROOT
BRANCH   1  11
ATOM      7  C   LIG    1       39.531  20.111 190.481  0.00  0.00    +0.221 C 
ATOM      8  N   LIG    1       38.556  20.850 189.889  0.00  0.00    -0.298 N 
ATOM      9  C   LIG    1       37.202  21.180 190.401  0.00  0.00    +0.126 C 
ATOM     10  C   LIG    1       36.187  20.341 189.586  0.00  0.00    +0.125 C 
ATOM     11  N   LIG    1       36.326  20.724 188.157  0.00  0.00    -0.312 N 
ATOM     12  C   LIG    1       37.700  20.433 187.641  0.00  0.00    +0.125 C 
ATOM     13  C   LIG    1       38.699  21.277 188.466  0.00  0.00    +0.126 C 
ATOM     14  O   LIG    1       40.544  19.849 189.834  0.00  0.00    -0.275 OA
BRANCH   7  15
ATOM     15  C   LIG    1       39.439  19.570 191.957  0.00  0.00    +0.041 C 
ATOM     16  C   LIG    1       40.734  18.801 192.340  0.00  0.00    +0.020 C 
ATOM     17  C   LIG    1       39.400  20.711 193.004  0.00  0.00    +0.020 C 
BRANCH  15  19
ATOM     18  C   LIG    1       38.168  17.417 191.197  0.00  0.00    +0.005 C 
ATOM     19  C   LIG    1       38.262  18.581 192.200  0.00  0.00    +0.012 C 
ENDBRANCH  15  19
ENDBRANCH   7  15
ENDBRANCH   1  11
BRANCH   4  20
ATOM     20  N   LIG    1       32.053  19.034 185.052  0.00  0.00    -0.280 N 
ATOM     21  H   LIG    1       31.131  19.452 185.217  0.00  0.00    +0.155 HD
ATOM     22  C   LIG    1       32.118  18.106 184.034  0.00  0.00    +0.248 C 
ATOM     23  O   LIG    1       33.218  17.740 183.640  0.00  0.00    -0.270 OA
BRANCH  22  24
ATOM     24  C   LIG    1       30.862  17.636 183.443  0.00  0.00    +0.037 A 
ATOM     25  C   LIG    1       29.620  17.890 184.059  0.00  0.00    +0.016 A 
ATOM     26  C   LIG    1       28.438  17.446 183.473  0.00  0.00    +0.039 A 
ATOM     27  C   LIG    1       28.505  16.744 182.277  0.00  0.00    +0.123 A 
ATOM     28  F   LIG    1       27.352  16.314 181.706  0.00  0.00    -0.205 F 
ATOM     29  C   LIG    1       29.711  16.464 181.650  0.00  0.00    +0.039 A 
ATOM     30  C   LIG    1       30.889  16.910 182.238  0.00  0.00    +0.016 A 
ENDBRANCH  22  24
ENDBRANCH   4  20
TORSDOF 5
ENDMDL
MODEL 2
REMARK VINA RESULT:      -8.0      1.511      2.006
REMARK  Name = ZINC000022624335
REMARK                            x       y       z     vdW  Elec       q    Type
REMARK                         _______ _______ _______ _____ _____    ______ ____
ROOT
ATOM      1  C   LIG    1       36.346  20.343 188.207  0.00  0.00    +0.121 A 
ATOM      2  N   LIG    1       35.730  19.192 188.509  0.00  0.00    -0.238 NA
ATOM      3  C   LIG    1       34.900  18.653 187.615  0.00  0.00    +0.136 A 
ATOM      4  C   LIG    1       34.659  19.249 186.372  0.00  0.00    +0.052 A 
ATOM      5  C   LIG    1       35.304  20.439 186.039  0.00  0.00    +0.028 A 
ATOM      6  C   LIG    1       36.162  20.987 186.975  0.00  0.00    +0.045 A 
ENDROOT
BRANCH   1  11
ATOM      7  C   LIG    1       39.689  20.767 192.302  0.00  0.00    +0.221 C 
ATOM      8  N   LIG    1       38.927  21.372 191.353  0.00  0.00    -0.298 N 
ATOM      9  C   LIG    1       37.504  21.788 191.433  0.00  0.00    +0.126 C 
ATOM     10  C   LIG    1       36.688  20.802 190.560  0.00  0.00    +0.125 C 
ATOM     11  N   LIG    1       37.197  20.901 189.168  0.00  0.00    -0.312 N 
ATOM     12  C   LIG    1       38.642  20.522 189.082  0.00  0.00    +0.125 C 
ATOM     13  C   LIG    1       39.439  21.515 189.958  0.00  0.00    +0.126 C 
ATOM     14  O   LIG    1       40.819  20.389 191.995  0.00  0.00    -0.275 OA
BRANCH   7  15
ATOM     15  C   LIG    1       39.207  20.522 193.781  0.00  0.00    +0.041 C 
ATOM     16  C   LIG    1       40.306  19.789 194.600  0.00  0.00    +0.020 C 
ATOM     17  C   LIG    1       39.020  21.842 194.568  0.00  0.00    +0.020 C 
BRANCH  15  19
ATOM     18  C   LIG    1       37.976  18.311 193.128  0.00  0.00    +0.005 C 
ATOM     19  C   LIG    1       37.926  19.644 193.895  0.00  0.00    +0.012 C 
ENDBRANCH  15  19
ENDBRANCH   7  15
ENDBRANCH   1  11
BRANCH   4  20
ATOM     20  N   LIG    1       33.783  18.601 185.452  0.00  0.00    -0.280 N 
ATOM     21  H   LIG    1       34.176  17.858 184.863  0.00  0.00    +0.155 HD
ATOM     22  C   LIG    1       32.426  18.808 185.331  0.00  0.00    +0.248 C 
ATOM     23  O   LIG    1       31.862  19.515 186.155  0.00  0.00    -0.270 OA
BRANCH  22  24
ATOM     24  C   LIG    1       31.716  18.131 184.241  0.00  0.00    +0.037 A 
ATOM     25  C   LIG    1       32.388  17.709 183.076  0.00  0.00    +0.016 A 
ATOM     26  C   LIG    1       31.697  17.057 182.060  0.00  0.00    +0.039 A 
ATOM     27  C   LIG    1       30.334  16.836 182.211  0.00  0.00    +0.123 A 
ATOM     28  F   LIG    1       29.662  16.197 181.221  0.00  0.00    -0.205 F 
ATOM     29  C   LIG    1       29.637  17.249 183.337  0.00  0.00    +0.039 A 
ATOM     30  C   LIG    1       30.332  17.901 184.351  0.00  0.00    +0.016 A 
ENDBRANCH  22  24
ENDBRANCH   4  20
TORSDOF 5
ENDMDL
MODEL 3
REMARK VINA RESULT:      -8.0      1.752      2.399
REMARK  Name = ZINC000022624335
REMARK                            x       y       z     vdW  Elec       q    Type
REMARK                         _______ _______ _______ _____ _____    ______ ____
ROOT
ATOM      1  C   LIG    1       36.964  20.388 187.526  0.00  0.00    +0.121 A 
ATOM      2  N   LIG    1       36.227  21.123 186.683  0.00  0.00    -0.238 NA
ATOM      3  C   LIG    1       35.304  20.515 185.937  0.00  0.00    +0.136 A 
ATOM      4  C   LIG    1       35.079  19.136 186.014  0.00  0.00    +0.052 A 
ATOM      5  C   LIG    1       35.829  18.361 186.897  0.00  0.00    +0.028 A 
ATOM      6  C   LIG    1       36.783  19.005 187.664  0.00  0.00    +0.045 A 
ENDROOT
BRANCH   1  11
ATOM      7  C   LIG    1       41.433  21.301 190.231  0.00  0.00    +0.221 C 
ATOM      8  N   LIG    1       40.212  21.733 189.820  0.00  0.00    -0.298 N 
ATOM      9  C   LIG    1       38.895  21.557 190.483  0.00  0.00    +0.126 C 
ATOM     10  C   LIG    1       38.103  20.510 189.660  0.00  0.00    +0.125 C 
ATOM     11  N   LIG    1       37.942  21.044 188.283  0.00  0.00    -0.312 N 
ATOM     12  C   LIG    1       39.265  21.263 187.619  0.00  0.00    +0.125 C 
ATOM     13  C   LIG    1       40.040  22.308 188.454  0.00  0.00    +0.126 C 
ATOM     14  O   LIG    1       42.392  21.441 189.473  0.00  0.00    -0.275 OA
BRANCH   7  15
ATOM     15  C   LIG    1       41.694  20.629 191.632  0.00  0.00    +0.041 C 
ATOM     16  C   LIG    1       43.213  20.382 191.845  0.00  0.00    +0.020 C 
ATOM     17  C   LIG    1       41.334  21.565 192.812  0.00  0.00    +0.020 C 
BRANCH  15  19
ATOM     18  C   LIG    1       41.108  18.299 190.605  0.00  0.00    +0.005 C 
ATOM     19  C   LIG    1       41.002  19.246 191.813  0.00  0.00    +0.012 C 
ENDBRANCH  15  19
ENDBRANCH   7  15
ENDBRANCH   1  11
BRANCH   4  20
ATOM     20  N   LIG    1       34.053  18.556 185.210  0.00  0.00    -0.280 N 
ATOM     21  H   LIG    1       34.339  18.053 184.363  0.00  0.00    +0.155 HD
ATOM     22  C   LIG    1       32.706  18.521 185.503  0.00  0.00    +0.248 C 
ATOM     23  O   LIG    1       32.333  18.904 186.604  0.00  0.00    -0.270 OA
BRANCH  22  24
ATOM     24  C   LIG    1       31.791  17.983 184.493  0.00  0.00    +0.037 A 
ATOM     25  C   LIG    1       32.251  17.587 183.220  0.00  0.00    +0.016 A 
ATOM     26  C   LIG    1       31.366  17.067 182.280  0.00  0.00    +0.039 A 
ATOM     27  C   LIG    1       30.024  16.951 182.616  0.00  0.00    +0.123 A 
ATOM     28  F   LIG    1       29.163  16.442 181.700  0.00  0.00    -0.205 F 
ATOM     29  C   LIG    1       29.534  17.344 183.853  0.00  0.00    +0.039 A 
ATOM     30  C   LIG    1       30.421  17.863 184.790  0.00  0.00    +0.016 A 
ENDBRANCH  22  24
ENDBRANCH   4  20
TORSDOF 5
ENDMDL
MODEL 4
REMARK VINA RESULT:      -7.7     21.192     23.031
REMARK  Name = ZINC000022624335
REMARK                            x       y       z     vdW  Elec       q    Type
REMARK                         _______ _______ _______ _____ _____    ______ ____
ROOT
ATOM      1  C   LIG    1       28.084  26.428 206.327  0.00  0.00    +0.121 A 
ATOM      2  N   LIG    1       28.743  26.546 205.167  0.00  0.00    -0.238 NA
ATOM      3  C   LIG    1       28.480  27.590 204.380  0.00  0.00    +0.136 A 
ATOM      4  C   LIG    1       27.542  28.567 204.733  0.00  0.00    +0.052 A 
ATOM      5  C   LIG    1       26.859  28.465 205.944  0.00  0.00    +0.028 A 
ATOM      6  C   LIG    1       27.142  27.377 206.750  0.00  0.00    +0.045 A 
ENDROOT
BRANCH   1  11
ATOM      7  C   LIG    1       27.385  22.060 209.252  0.00  0.00    +0.221 C 
ATOM      8  N   LIG    1       28.219  23.020 208.773  0.00  0.00    -0.298 N 
ATOM      9  C   LIG    1       28.555  24.338 209.368  0.00  0.00    +0.126 C 
ATOM     10  C   LIG    1       27.845  25.420 208.517  0.00  0.00    +0.125 C 
ATOM     11  N   LIG    1       28.360  25.314 207.127  0.00  0.00    -0.312 N 
ATOM     12  C   LIG    1       28.062  23.974 206.531  0.00  0.00    +0.125 C 
ATOM     13  C   LIG    1       28.778  22.908 207.394  0.00  0.00    +0.126 C 
ATOM     14  O   LIG    1       27.144  21.084 208.544  0.00  0.00    -0.275 OA
BRANCH   7  15
ATOM     15  C   LIG    1       26.706  22.126 210.672  0.00  0.00    +0.041 C 
ATOM     16  C   LIG    1       25.880  20.838 210.942  0.00  0.00    +0.020 C 
ATOM     17  C   LIG    1       27.741  22.113 211.823  0.00  0.00    +0.020 C 
BRANCH  15  19
ATOM     18  C   LIG    1       26.022  24.244 212.040  0.00  0.00    +0.005 C 
ATOM     19  C   LIG    1       25.719  23.317 210.851  0.00  0.00    +0.012 C 
ENDBRANCH  15  19
ENDBRANCH   7  15
ENDBRANCH   1  11
BRANCH   4  20
ATOM     20  N   LIG    1       27.334  29.674 203.858  0.00  0.00    -0.280 N 
ATOM     21  H   LIG    1       26.688  29.544 203.071  0.00  0.00    +0.155 HD
ATOM     22  C   LIG    1       27.844  30.945 204.012  0.00  0.00    +0.248 C 
ATOM     23  O   LIG    1       28.435  31.221 205.048  0.00  0.00    -0.270 OA
BRANCH  22  24
ATOM     24  C   LIG    1       27.614  31.920 202.941  0.00  0.00    +0.037 A 
ATOM     25  C   LIG    1       26.316  32.196 202.466  0.00  0.00    +0.016 A 
ATOM     26  C   LIG    1       26.119  33.134 201.457  0.00  0.00    +0.039 A 
ATOM     27  C   LIG    1       27.222  33.786 200.924  0.00  0.00    +0.123 A 
ATOM     28  F   LIG    1       27.029  34.703 199.942  0.00  0.00    -0.205 F 
ATOM     29  C   LIG    1       28.515  33.529 201.358  0.00  0.00    +0.039 A 
ATOM     30  C   LIG    1       28.708  32.591 202.366  0.00  0.00    +0.016 A 
ENDBRANCH  22  24
ENDBRANCH   4  20
TORSDOF 5
ENDMDL
MODEL 5
REMARK VINA RESULT:      -7.6     33.255     34.915
REMARK  Name = ZINC000022624335
REMARK                            x       y       z     vdW  Elec       q    Type
REMARK                         _______ _______ _______ _____ _____    ______ ____
ROOT
ATOM      1  C   LIG    1       20.849  41.690 210.698  0.00  0.00    +0.121 A 
ATOM      2  N   LIG    1       19.572  42.022 210.466  0.00  0.00    -0.238 NA
ATOM      3  C   LIG    1       18.704  41.058 210.154  0.00  0.00    +0.136 A 
ATOM      4  C   LIG    1       19.086  39.715 210.070  0.00  0.00    +0.052 A 
ATOM      5  C   LIG    1       20.409  39.354 210.323  0.00  0.00    +0.028 A 
ATOM      6  C   LIG    1       21.298  40.363 210.644  0.00  0.00    +0.045 A 
ENDROOT
BRANCH   1  11
ATOM      7  C   LIG    1       23.897  45.999 210.180  0.00  0.00    +0.221 C 
ATOM      8  N   LIG    1       23.490  44.945 210.934  0.00  0.00    -0.298 N 
ATOM      9  C   LIG    1       24.047  43.569 210.984  0.00  0.00    +0.126 C 
ATOM     10  C   LIG    1       23.036  42.639 210.268  0.00  0.00    +0.125 C 
ATOM     11  N   LIG    1       21.747  42.720 211.003  0.00  0.00    -0.312 N 
ATOM     12  C   LIG    1       21.196  44.111 210.994  0.00  0.00    +0.125 C 
ATOM     13  C   LIG    1       22.217  45.024 211.710  0.00  0.00    +0.126 C 
ATOM     14  O   LIG    1       23.221  47.027 210.193  0.00  0.00    -0.275 OA
BRANCH   7  15
ATOM     15  C   LIG    1       25.194  45.982 209.286  0.00  0.00    +0.041 C 
ATOM     16  C   LIG    1       25.351  47.328 208.525  0.00  0.00    +0.020 C 
ATOM     17  C   LIG    1       26.491  45.915 210.129  0.00  0.00    +0.020 C 
BRANCH  15  19
ATOM     18  C   LIG    1       24.109  44.994 207.124  0.00  0.00    +0.005 C 
ATOM     19  C   LIG    1       25.202  44.868 208.199  0.00  0.00    +0.012 C 
ENDBRANCH  15  19
ENDBRANCH   7  15
ENDBRANCH   1  11
BRANCH   4  20
ATOM     20  N   LIG    1       18.098  38.733 209.763  0.00  0.00    -0.280 N 
ATOM     21  H   LIG    1       17.566  38.332 210.544  0.00  0.00    +0.155 HD
ATOM     22  C   LIG    1       17.714  38.324 208.503  0.00  0.00    +0.248 C 
ATOM     23  O   LIG    1       18.151  38.926 207.531  0.00  0.00    -0.270 OA
BRANCH  22  24
ATOM     24  C   LIG    1       16.764  37.214 208.394  0.00  0.00    +0.037 A 
ATOM     25  C   LIG    1       15.521  37.241 209.059  0.00  0.00    +0.016 A 
ATOM     26  C   LIG    1       14.629  36.182 208.930  0.00  0.00    +0.039 A 
ATOM     27  C   LIG    1       14.986  35.096 208.143  0.00  0.00    +0.123 A 
ATOM     28  F   LIG    1       14.115  34.064 208.016  0.00  0.00    -0.205 F 
ATOM     29  C   LIG    1       16.207  35.028 207.485  0.00  0.00    +0.039 A 
ATOM     30  C   LIG    1       17.096  36.089 207.616  0.00  0.00    +0.016 A 
ENDBRANCH  22  24
ENDBRANCH   4  20
TORSDOF 5
ENDMDL
MODEL 6
REMARK VINA RESULT:      -7.5     20.792     23.121
REMARK  Name = ZINC000022624335
REMARK                            x       y       z     vdW  Elec       q    Type
REMARK                         _______ _______ _______ _____ _____    ______ ____
ROOT
ATOM      1  C   LIG    1       26.907  32.621 202.642  0.00  0.00    +0.121 A 
ATOM      2  N   LIG    1       27.726  32.750 203.694  0.00  0.00    -0.238 NA
ATOM      3  C   LIG    1       28.017  31.669 204.420  0.00  0.00    +0.136 A 
ATOM      4  C   LIG    1       27.497  30.407 204.112  0.00  0.00    +0.052 A 
ATOM      5  C   LIG    1       26.655  30.256 203.012  0.00  0.00    +0.028 A 
ATOM      6  C   LIG    1       26.362  31.384 202.268  0.00  0.00    +0.045 A 
ENDROOT
BRANCH   1  11
ATOM      7  C   LIG    1       25.173  35.757 198.733  0.00  0.00    +0.221 C 
ATOM      8  N   LIG    1       25.806  35.628 199.929  0.00  0.00    -0.298 N 
ATOM      9  C   LIG    1       27.249  35.400 200.194  0.00  0.00    +0.126 C 
ATOM     10  C   LIG    1       27.403  33.934 200.667  0.00  0.00    +0.125 C 
ATOM     11  N   LIG    1       26.600  33.771 201.907  0.00  0.00    -0.312 N 
ATOM     12  C   LIG    1       25.148  34.038 201.660  0.00  0.00    +0.125 C 
ATOM     13  C   LIG    1       25.015  35.504 201.188  0.00  0.00    +0.126 C 
ATOM     14  O   LIG    1       23.944  35.817 198.723  0.00  0.00    -0.275 OA
BRANCH   7  15
ATOM     15  C   LIG    1       25.926  35.837 197.352  0.00  0.00    +0.041 C 
ATOM     16  C   LIG    1       26.467  37.272 197.107  0.00  0.00    +0.020 C 
ATOM     17  C   LIG    1       27.215  34.979 197.332  0.00  0.00    +0.020 C 
BRANCH  15  19
ATOM     18  C   LIG    1       25.757  35.523 194.763  0.00  0.00    +0.005 C 
ATOM     19  C   LIG    1       25.035  35.495 196.122  0.00  0.00    +0.012 C 
ENDBRANCH  15  19
ENDBRANCH   7  15
ENDBRANCH   1  11
BRANCH   4  20
ATOM     20  N   LIG    1       27.875  29.289 204.912  0.00  0.00    -0.280 N 
ATOM     21  H   LIG    1       28.806  29.305 205.344  0.00  0.00    +0.155 HD
ATOM     22  C   LIG    1       27.077  28.215 205.246  0.00  0.00    +0.248 C 
ATOM     23  O   LIG    1       25.890  28.249 204.949  0.00  0.00    -0.270 OA
BRANCH  22  24
ATOM     24  C   LIG    1       27.684  27.102 205.982  0.00  0.00    +0.037 A 
ATOM     25  C   LIG    1       27.474  26.935 207.366  0.00  0.00    +0.016 A 
ATOM     26  C   LIG    1       28.050  25.864 208.043  0.00  0.00    +0.039 A 
ATOM     27  C   LIG    1       28.838  24.969 207.333  0.00  0.00    +0.123 A 
ATOM     28  F   LIG    1       29.397  23.923 207.992  0.00  0.00    -0.205 F 
ATOM     29  C   LIG    1       29.078  25.110 205.973  0.00  0.00    +0.039 A 
ATOM     30  C   LIG    1       28.501  26.182 205.300  0.00  0.00    +0.016 A 
ENDBRANCH  22  24
ENDBRANCH   4  20
TORSDOF 5
ENDMDL
MODEL 7
REMARK VINA RESULT:      -7.2      4.188     10.590
REMARK  Name = ZINC000022624335
REMARK                            x       y       z     vdW  Elec       q    Type
REMARK                         _______ _______ _______ _____ _____    ______ ____
ROOT
ATOM      1  C   LIG    1       32.921  18.611 185.496  0.00  0.00    +0.121 A 
ATOM      2  N   LIG    1       33.985  17.883 185.862  0.00  0.00    -0.238 NA
ATOM      3  C   LIG    1       35.123  18.512 186.159  0.00  0.00    +0.136 A 
ATOM      4  C   LIG    1       35.236  19.906 186.103  0.00  0.00    +0.052 A 
ATOM      5  C   LIG    1       34.133  20.676 185.737  0.00  0.00    +0.028 A 
ATOM      6  C   LIG    1       32.960  20.011 185.433  0.00  0.00    +0.045 A 
ENDROOT
BRANCH   1  11
ATOM      7  C   LIG    1       27.783  17.598 184.658  0.00  0.00    +0.221 C 
ATOM      8  N   LIG    1       29.063  17.146 184.728  0.00  0.00    -0.298 N 
ATOM      9  C   LIG    1       29.800  16.628 185.908  0.00  0.00    +0.126 C 
ATOM     10  C   LIG    1       30.827  17.713 186.319  0.00  0.00    +0.125 C 
ATOM     11  N   LIG    1       31.743  17.928 185.170  0.00  0.00    -0.312 N 
ATOM     12  C   LIG    1       31.004  18.412 183.961  0.00  0.00    +0.125 C 
ATOM     13  C   LIG    1       29.985  17.319 183.567  0.00  0.00    +0.126 C 
ATOM     14  O   LIG    1       27.396  18.104 183.606  0.00  0.00    -0.275 OA
BRANCH   7  15
ATOM     15  C   LIG    1       26.761  17.509 185.853  0.00  0.00    +0.041 C 
ATOM     16  C   LIG    1       25.540  18.436 185.598  0.00  0.00    +0.020 C 
ATOM     17  C   LIG    1       26.107  16.110 185.968  0.00  0.00    +0.020 C 
BRANCH  15  19
ATOM     18  C   LIG    1       26.816  17.160 188.442  0.00  0.00    +0.005 C 
ATOM     19  C   LIG    1       27.350  17.940 187.228  0.00  0.00    +0.012 C 
ENDBRANCH  15  19
ENDBRANCH   7  15
ENDBRANCH   1  11
BRANCH   4  20
ATOM     20  N   LIG    1       36.475  20.514 186.464  0.00  0.00    -0.280 N 
ATOM     21  H   LIG    1       36.868  21.211 185.821  0.00  0.00    +0.155 HD
ATOM     22  C   LIG    1       37.164  20.329 187.644  0.00  0.00    +0.248 C 
ATOM     23  O   LIG    1       36.635  19.686 188.540  0.00  0.00    -0.270 OA
BRANCH  22  24
ATOM     24  C   LIG    1       38.484  20.953 187.781  0.00  0.00    +0.037 A 
ATOM     25  C   LIG    1       39.378  21.027 186.693  0.00  0.00    +0.016 A 
ATOM     26  C   LIG    1       40.621  21.635 186.842  0.00  0.00    +0.039 A 
ATOM     27  C   LIG    1       40.966  22.160 188.080  0.00  0.00    +0.123 A 
ATOM     28  F   LIG    1       42.177  22.755 188.224  0.00  0.00    -0.205 F 
ATOM     29  C   LIG    1       40.117  22.092 189.176  0.00  0.00    +0.039 A 
ATOM     30  C   LIG    1       38.876  21.484 189.023  0.00  0.00    +0.016 A 
ENDBRANCH  22  24
ENDBRANCH   4  20
TORSDOF 5
ENDMDL
MODEL 8
REMARK VINA RESULT:      -7.1      7.645      9.985
REMARK  Name = ZINC000022624335
REMARK                            x       y       z     vdW  Elec       q    Type
REMARK                         _______ _______ _______ _____ _____    ______ ____
ROOT
ATOM      1  C   LIG    1       35.188  16.494 193.437  0.00  0.00    +0.121 A 
ATOM      2  N   LIG    1       35.156  17.146 194.607  0.00  0.00    -0.238 NA
ATOM      3  C   LIG    1       34.104  16.977 195.409  0.00  0.00    +0.136 A 
ATOM      4  C   LIG    1       33.039  16.137 195.069  0.00  0.00    +0.052 A 
ATOM      5  C   LIG    1       33.065  15.442 193.860  0.00  0.00    +0.028 A 
ATOM      6  C   LIG    1       34.161  15.626 193.038  0.00  0.00    +0.045 A 
ENDROOT
BRANCH   1  11
ATOM      7  C   LIG    1       38.208  18.346 189.490  0.00  0.00    +0.221 C 
ATOM      8  N   LIG    1       38.058  17.501 190.544  0.00  0.00    -0.298 N 
ATOM      9  C   LIG    1       37.511  16.121 190.556  0.00  0.00    +0.126 C 
ATOM     10  C   LIG    1       36.113  16.187 191.219  0.00  0.00    +0.125 C 
ATOM     11  N   LIG    1       36.291  16.702 192.601  0.00  0.00    -0.312 N 
ATOM     12  C   LIG    1       36.880  18.078 192.603  0.00  0.00    +0.125 C 
ATOM     13  C   LIG    1       38.272  17.993 191.937  0.00  0.00    +0.126 C 
ATOM     14  O   LIG    1       38.568  19.501 189.711  0.00  0.00    -0.275 OA
BRANCH   7  15
ATOM     15  C   LIG    1       37.946  17.929 187.995  0.00  0.00    +0.041 C 
ATOM     16  C   LIG    1       38.327  19.086 187.030  0.00  0.00    +0.020 C 
ATOM     17  C   LIG    1       38.876  16.780 187.531  0.00  0.00    +0.020 C 
BRANCH  15  19
ATOM     18  C   LIG    1       35.427  18.590 188.200  0.00  0.00    +0.005 C 
ATOM     19  C   LIG    1       36.462  17.577 187.682  0.00  0.00    +0.012 C 
ENDBRANCH  15  19
ENDBRANCH   7  15
ENDBRANCH   1  11
BRANCH   4  20
ATOM     20  N   LIG    1       31.961  15.979 195.988  0.00  0.00    -0.280 N 
ATOM     21  H   LIG    1       32.074  15.290 196.741  0.00  0.00    +0.155 HD
ATOM     22  C   LIG    1       30.803  16.727 196.029  0.00  0.00    +0.248 C 
ATOM     23  O   LIG    1       30.711  17.708 195.302  0.00  0.00    -0.270 OA
BRANCH  22  24
ATOM     24  C   LIG    1       29.756  16.334 196.977  0.00  0.00    +0.037 A 
ATOM     25  C   LIG    1       28.570  15.708 196.543  0.00  0.00    +0.016 A 
ATOM     26  C   LIG    1       27.594  15.332 197.461  0.00  0.00    +0.039 A 
ATOM     27  C   LIG    1       27.808  15.589 198.809  0.00  0.00    +0.123 A 
ATOM     28  F   LIG    1       26.857  15.219 199.704  0.00  0.00    -0.205 F 
ATOM     29  C   LIG    1       28.957  16.216 199.270  0.00  0.00    +0.039 A 
ATOM     30  C   LIG    1       29.929  16.590 198.349  0.00  0.00    +0.016 A 
ENDBRANCH  22  24
ENDBRANCH   4  20
TORSDOF 5
ENDMDL
MODEL 9
REMARK VINA RESULT:      -7.1     33.870     35.806
REMARK  Name = ZINC000022624335
REMARK                            x       y       z     vdW  Elec       q    Type
REMARK                         _______ _______ _______ _____ _____    ______ ____
ROOT
ATOM      1  C   LIG    1       23.373  43.350 209.571  0.00  0.00    +0.121 A 
ATOM      2  N   LIG    1       22.199  43.671 210.132  0.00  0.00    -0.238 NA
ATOM      3  C   LIG    1       21.241  42.745 210.195  0.00  0.00    +0.136 A 
ATOM      4  C   LIG    1       21.428  41.451 209.698  0.00  0.00    +0.052 A 
ATOM      5  C   LIG    1       22.649  41.099 209.124  0.00  0.00    +0.028 A 
ATOM      6  C   LIG    1       23.633  42.069 209.066  0.00  0.00    +0.045 A 
ENDROOT
BRANCH   1  11
ATOM      7  C   LIG    1       26.298  47.607 210.776  0.00  0.00    +0.221 C 
ATOM      8  N   LIG    1       26.000  46.607 209.905  0.00  0.00    -0.298 N 
ATOM      9  C   LIG    1       25.005  46.604 208.803  0.00  0.00    +0.126 C 
ATOM     10  C   LIG    1       23.824  45.709 209.254  0.00  0.00    +0.125 C 
ATOM     11  N   LIG    1       24.356  44.344 209.498  0.00  0.00    -0.312 N 
ATOM     12  C   LIG    1       25.390  44.342 210.580  0.00  0.00    +0.125 C 
ATOM     13  C   LIG    1       26.559  45.239 210.113  0.00  0.00    +0.126 C 
ATOM     14  O   LIG    1       27.071  47.368 211.703  0.00  0.00    -0.275 OA
BRANCH   7  15
ATOM     15  C   LIG    1       25.708  49.063 210.667  0.00  0.00    +0.041 C 
ATOM     16  C   LIG    1       26.392  50.009 211.692  0.00  0.00    +0.020 C 
ATOM     17  C   LIG    1       26.040  49.735 209.311  0.00  0.00    +0.020 C 
BRANCH  15  19
ATOM     18  C   LIG    1       23.728  48.565 212.297  0.00  0.00    +0.005 C 
ATOM     19  C   LIG    1       24.180  49.153 210.949  0.00  0.00    +0.012 C 
ENDBRANCH  15  19
ENDBRANCH   7  15
ENDBRANCH   1  11
BRANCH   4  20
ATOM     20  N   LIG    1       20.371  40.501 209.826  0.00  0.00    -0.280 N 
ATOM     21  H   LIG    1       20.264  40.027 210.730  0.00  0.00    +0.155 HD
ATOM     22  C   LIG    1       19.409  40.215 208.880  0.00  0.00    +0.248 C 
ATOM     23  O   LIG    1       19.350  40.908 207.873  0.00  0.00    -0.270 OA
BRANCH  22  24
ATOM     24  C   LIG    1       18.475  39.119 209.152  0.00  0.00    +0.037 A 
ATOM     25  C   LIG    1       17.482  38.753 208.221  0.00  0.00    +0.016 A 
ATOM     26  C   LIG    1       16.613  37.700 208.493  0.00  0.00    +0.039 A 
ATOM     27  C   LIG    1       16.738  37.024 209.699  0.00  0.00    +0.123 A 
ATOM     28  F   LIG    1       15.892  35.996 209.963  0.00  0.00    -0.205 F 
ATOM     29  C   LIG    1       17.694  37.366 210.645  0.00  0.00    +0.039 A 
ATOM     30  C   LIG    1       18.560  38.419 210.369  0.00  0.00    +0.016 A 
ENDBRANCH  22  24
ENDBRANCH   4  20
TORSDOF 5
ENDMDL
