REMARK VINA RESULT:      -7.6     26.266     28.468
REMARK  Name = ZINC000009527204
REMARK                            x       y       z     vdW  Elec       q    Type
REMARK                         _______ _______ _______ _____ _____    ______ ____
ROOT
ATOM      1  O   LIG    1       26.179  16.862 184.886  0.00  0.00    -0.267 OA
ATOM      2  C   LIG    1       26.994  16.508 185.737  0.00  0.00    +0.282 C 
ATOM      3  N   LIG    1       28.319  16.414 185.324  0.00  0.00    -0.292 N 
ATOM      4  C   LIG    1       29.455  16.779 186.208  0.00  0.00    +0.127 C 
ATOM      5  C   LIG    1       29.846  18.238 185.855  0.00  0.00    +0.127 C 
ATOM      6  N   LIG    1       30.188  18.261 184.410  0.00  0.00    -0.294 N 
ATOM      7  C   LIG    1       31.489  18.014 183.988  0.00  0.00    +0.253 C 
ATOM      8  O   LIG    1       31.627  17.321 182.981  0.00  0.00    -0.269 OA
ATOM      9  C   LIG    1       29.041  17.897 183.531  0.00  0.00    +0.127 C 
ATOM     10  C   LIG    1       28.660  16.438 183.875  0.00  0.00    +0.127 C 
ENDROOT
BRANCH   7  11
ATOM     11  C   LIG    1       32.615  18.546 184.737  0.00  0.00    +0.075 A 
ATOM     12  S   LIG    1       33.777  17.489 185.477  0.00  0.00    -0.083 S 
ATOM     13  C   LIG    1       34.670  18.832 186.097  0.00  0.00    +0.024 A 
ATOM     14  C   LIG    1       35.851  18.770 186.922  0.00  0.00    -0.001 A 
ATOM     15  C   LIG    1       36.256  19.922 187.541  0.00  0.00    -0.002 A 
ATOM     16  C   LIG    1       35.485  21.232 187.474  0.00  0.00    +0.048 C 
ATOM     17  C   LIG    1       34.784  21.347 186.088  0.00  0.00    +0.041 C 
ATOM     18  S   LIG    1       37.686  19.684 188.479  0.00  0.00    -0.101 S 
ATOM     19  C   LIG    1       37.731  18.013 188.030  0.00  0.00    +0.046 A 
ATOM     20  C   LIG    1       36.697  17.678 187.206  0.00  0.00    +0.017 A 
ATOM     21  C   LIG    1       34.105  20.028 185.726  0.00  0.00    -0.032 A 
ATOM     22  C   LIG    1       32.948  19.868 184.959  0.00  0.00    +0.025 A 
ENDBRANCH   7  11
BRANCH   2  23
ATOM     23  C   LIG    1       26.584  16.218 187.112  0.00  0.00    +0.189 A 
ATOM     24  O   LIG    1       27.097  16.868 188.217  0.00  0.00    -0.458 OA
ATOM     25  C   LIG    1       26.521  16.335 189.316  0.00  0.00    +0.196 A 
ATOM     26  C   LIG    1       25.657  15.360 188.948  0.00  0.00    +0.042 A 
ATOM     27  C   LIG    1       25.697  15.281 187.555  0.00  0.00    +0.054 A 
ENDBRANCH   2  23
TORSDOF 2
