MODEL 1
REMARK VINA RESULT:      -7.3      0.000      0.000
REMARK  Name = ZINC000070728784
REMARK                            x       y       z     vdW  Elec       q    Type
REMARK                         _______ _______ _______ _____ _____    ______ ____
ROOT
ATOM      1  C   LIG    1       20.605  47.647 185.017  0.00  0.00    +0.251 C 
ATOM      2  N   LIG    1       21.968  47.835 184.958  0.00  0.00    -0.261 N 
ATOM      3  H   LIG    1       22.362  48.446 185.683  0.00  0.00    +0.157 HD
ATOM      4  O   LIG    1       20.090  46.776 184.329  0.00  0.00    -0.270 OA
ENDROOT
BRANCH   1   6
ATOM      5  C   LIG    1       19.252  49.741 185.462  0.00  0.00    +0.020 A 
ATOM      6  C   LIG    1       19.822  48.514 185.891  0.00  0.00    +0.050 A 
ATOM      7  C   LIG    1       19.607  48.104 187.215  0.00  0.00    +0.014 A 
ATOM      8  C   LIG    1       18.809  48.842 188.078  0.00  0.00    +0.001 A 
ATOM      9  C   LIG    1       18.210  50.017 187.631  0.00  0.00    +0.001 A 
ATOM     10  C   LIG    1       18.427  50.462 186.336  0.00  0.00    +0.015 A 
BRANCH   5  11
ATOM     11  S   LIG    1       19.535  50.443 183.887  0.00  0.00    -0.122 S 
BRANCH  11  13
ATOM     12  C   LIG    1       21.813  51.714 184.540  0.00  0.00    +0.019 C 
ATOM     13  C   LIG    1       20.343  52.035 184.274  0.00  0.00    +0.045 C 
ATOM     14  C   LIG    1       20.173  52.914 183.034  0.00  0.00    +0.019 C 
ENDBRANCH  11  13
ENDBRANCH   5  11
ENDBRANCH   1   6
BRANCH   2  15
ATOM     15  C   LIG    1       22.886  47.244 184.081  0.00  0.00    +0.165 A 
ATOM     16  S   LIG    1       23.499  48.236 182.812  0.00  0.00    -0.060 S 
ATOM     17  C   LIG    1       24.403  46.879 182.286  0.00  0.00    +0.073 A 
ATOM     18  C   LIG    1       24.179  45.800 183.084  0.00  0.00    +0.064 A 
ATOM     19  N   LIG    1       23.306  46.013 184.113  0.00  0.00    -0.228 NA
BRANCH  18  20
ATOM     20  C   LIG    1       24.833  44.445 182.882  0.00  0.00    +0.140 C 
BRANCH  20  21
ATOM     21  N   LIG    1       26.212  44.510 183.455  0.00  0.00    -0.292 NA
ATOM     22  C   LIG    1       27.264  44.885 182.455  0.00  0.00    +0.113 C 
ATOM     23  C   LIG    1       27.479  43.717 181.459  0.00  0.00    +0.175 C 
ATOM     24  O   LIG    1       27.859  42.570 182.220  0.00  0.00    -0.377 OA
ATOM     25  C   LIG    1       26.829  42.131 183.103  0.00  0.00    +0.175 C 
ATOM     26  C   LIG    1       26.599  43.250 184.149  0.00  0.00    +0.113 C 
ENDBRANCH  20  21
ENDBRANCH  18  20
ENDBRANCH   2  15
TORSDOF 6
ENDMDL
MODEL 2
REMARK VINA RESULT:      -7.3     30.012     31.877
REMARK  Name = ZINC000070728784
REMARK                            x       y       z     vdW  Elec       q    Type
REMARK                         _______ _______ _______ _____ _____    ______ ____
ROOT
ATOM      1  C   LIG    1       31.638  18.611 185.770  0.00  0.00    +0.251 C 
ATOM      2  N   LIG    1       32.994  18.601 185.532  0.00  0.00    -0.261 N 
ATOM      3  H   LIG    1       33.279  18.235 184.616  0.00  0.00    +0.157 HD
ATOM      4  O   LIG    1       31.204  19.220 186.739  0.00  0.00    -0.270 OA
ENDROOT
BRANCH   1   6
ATOM      5  C   LIG    1       29.499  17.364 185.241  0.00  0.00    +0.020 A 
ATOM      6  C   LIG    1       30.768  17.874 184.862  0.00  0.00    +0.050 A 
ATOM      7  C   LIG    1       31.199  17.675 183.541  0.00  0.00    +0.014 A 
ATOM      8  C   LIG    1       30.390  17.048 182.604  0.00  0.00    +0.001 A 
ATOM      9  C   LIG    1       29.124  16.600 182.973  0.00  0.00    +0.001 A 
ATOM     10  C   LIG    1       28.681  16.757 184.278  0.00  0.00    +0.015 A 
BRANCH   5  11
ATOM     11  S   LIG    1       28.880  17.422 186.875  0.00  0.00    -0.122 S 
BRANCH  11  13
ATOM     12  C   LIG    1       26.962  15.855 187.921  0.00  0.00    +0.019 C 
ATOM     13  C   LIG    1       27.187  16.757 186.708  0.00  0.00    +0.045 C 
ATOM     14  C   LIG    1       26.250  17.965 186.722  0.00  0.00    +0.019 C 
ENDBRANCH  11  13
ENDBRANCH   5  11
ENDBRANCH   1   6
BRANCH   2  15
ATOM     15  C   LIG    1       34.021  19.090 186.349  0.00  0.00    +0.165 A 
ATOM     16  S   LIG    1       34.575  20.690 186.030  0.00  0.00    -0.060 S 
ATOM     17  C   LIG    1       35.697  20.478 187.306  0.00  0.00    +0.073 A 
ATOM     18  C   LIG    1       35.579  19.244 187.866  0.00  0.00    +0.064 A 
ATOM     19  N   LIG    1       34.615  18.448 187.312  0.00  0.00    -0.228 NA
BRANCH  18  20
ATOM     20  C   LIG    1       36.431  18.750 189.021  0.00  0.00    +0.140 C 
BRANCH  20  21
ATOM     21  N   LIG    1       36.421  17.255 188.992  0.00  0.00    -0.292 NA
ATOM     22  C   LIG    1       36.272  16.626 190.345  0.00  0.00    +0.113 C 
ATOM     23  C   LIG    1       37.570  16.836 191.165  0.00  0.00    +0.175 C 
ATOM     24  O   LIG    1       38.643  16.252 190.427  0.00  0.00    -0.377 OA
ATOM     25  C   LIG    1       38.873  16.906 189.181  0.00  0.00    +0.175 C 
ATOM     26  C   LIG    1       37.615  16.693 188.301  0.00  0.00    +0.113 C 
ENDBRANCH  20  21
ENDBRANCH  18  20
ENDBRANCH   2  15
TORSDOF 6
ENDMDL
MODEL 3
REMARK VINA RESULT:      -6.5     24.956     26.730
REMARK  Name = ZINC000070728784
REMARK                            x       y       z     vdW  Elec       q    Type
REMARK                         _______ _______ _______ _____ _____    ______ ____
ROOT
ATOM      1  C   LIG    1       18.427  39.582 208.600  0.00  0.00    +0.251 C 
ATOM      2  N   LIG    1       19.219  39.750 209.713  0.00  0.00    -0.261 N 
ATOM      3  H   LIG    1       18.751  39.598 210.615  0.00  0.00    +0.157 HD
ATOM      4  O   LIG    1       18.949  39.536 207.494  0.00  0.00    -0.270 OA
ENDROOT
BRANCH   1   6
ATOM      5  C   LIG    1       16.254  38.282 208.585  0.00  0.00    +0.020 A 
ATOM      6  C   LIG    1       16.983  39.483 208.783  0.00  0.00    +0.050 A 
ATOM      7  C   LIG    1       16.284  40.629 209.193  0.00  0.00    +0.014 A 
ATOM      8  C   LIG    1       14.922  40.587 209.459  0.00  0.00    +0.001 A 
ATOM      9  C   LIG    1       14.226  39.389 209.314  0.00  0.00    +0.001 A 
ATOM     10  C   LIG    1       14.885  38.247 208.883  0.00  0.00    +0.015 A 
BRANCH   5  11
ATOM     11  S   LIG    1       16.960  36.812 207.957  0.00  0.00    -0.122 S 
BRANCH  11  13
ATOM     12  C   LIG    1       15.873  34.377 207.607  0.00  0.00    +0.019 C 
ATOM     13  C   LIG    1       15.885  35.502 208.642  0.00  0.00    +0.045 C 
ATOM     14  C   LIG    1       16.535  35.057 209.952  0.00  0.00    +0.019 C 
ENDBRANCH  11  13
ENDBRANCH   5  11
ENDBRANCH   1   6
BRANCH   2  15
ATOM     15  C   LIG    1       20.589  40.032 209.767  0.00  0.00    +0.165 A 
ATOM     16  S   LIG    1       21.547  39.047 210.807  0.00  0.00    -0.060 S 
ATOM     17  C   LIG    1       22.898  39.986 210.333  0.00  0.00    +0.073 A 
ATOM     18  C   LIG    1       22.538  40.955 209.448  0.00  0.00    +0.064 A 
ATOM     19  N   LIG    1       21.211  40.979 209.126  0.00  0.00    -0.228 NA
BRANCH  18  20
ATOM     20  C   LIG    1       23.508  41.951 208.838  0.00  0.00    +0.140 C 
BRANCH  20  21
ATOM     21  N   LIG    1       23.685  43.073 209.811  0.00  0.00    -0.292 NA
ATOM     22  C   LIG    1       23.160  44.388 209.316  0.00  0.00    +0.113 C 
ATOM     23  C   LIG    1       24.068  44.919 208.178  0.00  0.00    +0.175 C 
ATOM     24  O   LIG    1       25.389  45.042 208.706  0.00  0.00    -0.377 OA
ATOM     25  C   LIG    1       25.949  43.786 209.083  0.00  0.00    +0.175 C 
ATOM     26  C   LIG    1       25.099  43.226 210.251  0.00  0.00    +0.113 C 
ENDBRANCH  20  21
ENDBRANCH  18  20
ENDBRANCH   2  15
TORSDOF 6
ENDMDL
MODEL 4
REMARK VINA RESULT:      -6.5      1.996      2.204
REMARK  Name = ZINC000070728784
REMARK                            x       y       z     vdW  Elec       q    Type
REMARK                         _______ _______ _______ _____ _____    ______ ____
ROOT
ATOM      1  C   LIG    1       20.620  48.524 184.839  0.00  0.00    +0.251 C 
ATOM      2  N   LIG    1       20.235  47.398 184.148  0.00  0.00    -0.261 N 
ATOM      3  H   LIG    1       19.221  47.262 184.055  0.00  0.00    +0.157 HD
ATOM      4  O   LIG    1       21.794  48.871 184.813  0.00  0.00    -0.270 OA
ENDROOT
BRANCH   1   6
ATOM      5  C   LIG    1       18.906  50.373 185.073  0.00  0.00    +0.020 A 
ATOM      6  C   LIG    1       19.609  49.256 185.594  0.00  0.00    +0.050 A 
ATOM      7  C   LIG    1       19.304  48.821 186.893  0.00  0.00    +0.014 A 
ATOM      8  C   LIG    1       18.301  49.424 187.638  0.00  0.00    +0.001 A 
ATOM      9  C   LIG    1       17.579  50.485 187.097  0.00  0.00    +0.001 A 
ATOM     10  C   LIG    1       17.877  50.955 185.827  0.00  0.00    +0.015 A 
BRANCH   5  11
ATOM     11  S   LIG    1       19.260  51.107 183.527  0.00  0.00    -0.122 S 
BRANCH  11  13
ATOM     12  C   LIG    1       17.016  50.406 182.220  0.00  0.00    +0.019 C 
ATOM     13  C   LIG    1       18.476  49.968 182.331  0.00  0.00    +0.045 C 
ATOM     14  C   LIG    1       19.223  50.155 181.010  0.00  0.00    +0.019 C 
ENDBRANCH  11  13
ENDBRANCH   5  11
ENDBRANCH   1   6
BRANCH   2  15
ATOM     15  C   LIG    1       21.047  46.458 183.501  0.00  0.00    +0.165 A 
ATOM     16  S   LIG    1       21.195  46.603 181.791  0.00  0.00    -0.060 S 
ATOM     17  C   LIG    1       22.206  45.221 181.834  0.00  0.00    +0.073 A 
ATOM     18  C   LIG    1       22.353  44.758 183.105  0.00  0.00    +0.064 A 
ATOM     19  N   LIG    1       21.684  45.470 184.060  0.00  0.00    -0.228 NA
BRANCH  18  20
ATOM     20  C   LIG    1       23.189  43.547 183.477  0.00  0.00    +0.140 C 
BRANCH  20  21
ATOM     21  N   LIG    1       24.461  44.038 184.090  0.00  0.00    -0.292 NA
ATOM     22  C   LIG    1       25.428  44.609 183.096  0.00  0.00    +0.113 C 
ATOM     23  C   LIG    1       26.013  43.472 182.222  0.00  0.00    +0.175 C 
ATOM     24  O   LIG    1       26.646  42.539 183.099  0.00  0.00    -0.377 OA
ATOM     25  C   LIG    1       25.725  41.903 183.982  0.00  0.00    +0.175 C 
ATOM     26  C   LIG    1       25.136  42.995 184.911  0.00  0.00    +0.113 C 
ENDBRANCH  20  21
ENDBRANCH  18  20
ENDBRANCH   2  15
TORSDOF 6
ENDMDL
MODEL 5
REMARK VINA RESULT:      -6.4     24.959     27.484
REMARK  Name = ZINC000070728784
REMARK                            x       y       z     vdW  Elec       q    Type
REMARK                         _______ _______ _______ _____ _____    ______ ____
ROOT
ATOM      1  C   LIG    1       22.368  40.095 210.234  0.00  0.00    +0.251 C 
ATOM      2  N   LIG    1       21.071  40.554 210.246  0.00  0.00    -0.261 N 
ATOM      3  H   LIG    1       20.928  41.464 210.700  0.00  0.00    +0.157 HD
ATOM      4  O   LIG    1       22.657  39.132 209.535  0.00  0.00    -0.270 OA
ENDROOT
BRANCH   1   6
ATOM      5  C   LIG    1       24.066  41.924 210.666  0.00  0.00    +0.020 A 
ATOM      6  C   LIG    1       23.351  40.768 211.076  0.00  0.00    +0.050 A 
ATOM      7  C   LIG    1       23.588  40.258 212.362  0.00  0.00    +0.014 A 
ATOM      8  C   LIG    1       24.453  40.892 213.241  0.00  0.00    +0.001 A 
ATOM      9  C   LIG    1       25.108  42.057 212.848  0.00  0.00    +0.001 A 
ATOM     10  C   LIG    1       24.916  42.569 211.574  0.00  0.00    +0.015 A 
BRANCH   5  11
ATOM     11  S   LIG    1       23.973  42.601 209.057  0.00  0.00    -0.122 S 
BRANCH  11  13
ATOM     12  C   LIG    1       23.640  45.056 208.014  0.00  0.00    +0.019 C 
ATOM     13  C   LIG    1       23.512  44.343 209.359  0.00  0.00    +0.045 C 
ATOM     14  C   LIG    1       22.065  44.323 209.851  0.00  0.00    +0.019 C 
ENDBRANCH  11  13
ENDBRANCH   5  11
ENDBRANCH   1   6
BRANCH   2  15
ATOM     15  C   LIG    1       19.941  39.972 209.658  0.00  0.00    +0.165 A 
ATOM     16  S   LIG    1       19.370  40.683 208.196  0.00  0.00    -0.060 S 
ATOM     17  C   LIG    1       18.117  39.515 208.202  0.00  0.00    +0.073 A 
ATOM     18  C   LIG    1       18.215  38.694 209.283  0.00  0.00    +0.064 A 
ATOM     19  N   LIG    1       19.263  38.961 210.118  0.00  0.00    -0.228 NA
BRANCH  18  20
ATOM     20  C   LIG    1       17.255  37.555 209.574  0.00  0.00    +0.140 C 
BRANCH  20  21
ATOM     21  N   LIG    1       16.494  37.264 208.320  0.00  0.00    -0.292 NA
ATOM     22  C   LIG    1       15.007  37.378 208.476  0.00  0.00    +0.113 C 
ATOM     23  C   LIG    1       14.482  36.208 209.345  0.00  0.00    +0.175 C 
ATOM     24  O   LIG    1       14.853  34.991 208.697  0.00  0.00    -0.377 OA
ATOM     25  C   LIG    1       16.267  34.812 208.635  0.00  0.00    +0.175 C 
ATOM     26  C   LIG    1       16.843  35.937 207.739  0.00  0.00    +0.113 C 
ENDBRANCH  20  21
ENDBRANCH  18  20
ENDBRANCH   2  15
TORSDOF 6
ENDMDL
MODEL 6
REMARK VINA RESULT:      -6.4     30.340     32.226
REMARK  Name = ZINC000070728784
REMARK                            x       y       z     vdW  Elec       q    Type
REMARK                         _______ _______ _______ _____ _____    ______ ____
ROOT
ATOM      1  C   LIG    1       36.622  20.818 189.732  0.00  0.00    +0.251 C 
ATOM      2  N   LIG    1       37.933  20.906 190.144  0.00  0.00    -0.261 N 
ATOM      3  H   LIG    1       38.636  20.647 189.442  0.00  0.00    +0.157 HD
ATOM      4  O   LIG    1       35.741  21.306 190.427  0.00  0.00    -0.270 OA
ENDROOT
BRANCH   1   6
ATOM      5  C   LIG    1       36.226  18.715 188.378  0.00  0.00    +0.020 A 
ATOM      6  C   LIG    1       36.333  20.127 188.481  0.00  0.00    +0.050 A 
ATOM      7  C   LIG    1       36.132  20.897 187.325  0.00  0.00    +0.014 A 
ATOM      8  C   LIG    1       35.780  20.309 186.118  0.00  0.00    +0.001 A 
ATOM      9  C   LIG    1       35.624  18.927 186.041  0.00  0.00    +0.001 A 
ATOM     10  C   LIG    1       35.843  18.137 187.160  0.00  0.00    +0.015 A 
BRANCH   5  11
ATOM     11  S   LIG    1       36.570  17.619 189.695  0.00  0.00    -0.122 S 
BRANCH  11  13
ATOM     12  C   LIG    1       38.846  17.009 190.991  0.00  0.00    +0.019 C 
ATOM     13  C   LIG    1       38.379  17.382 189.584  0.00  0.00    +0.045 C 
ATOM     14  C   LIG    1       38.601  16.239 188.594  0.00  0.00    +0.019 C 
ENDBRANCH  11  13
ENDBRANCH   5  11
ENDBRANCH   1   6
BRANCH   2  15
ATOM     15  C   LIG    1       38.425  21.368 191.371  0.00  0.00    +0.165 A 
ATOM     16  S   LIG    1       38.153  20.367 192.747  0.00  0.00    -0.060 S 
ATOM     17  C   LIG    1       38.953  21.558 193.682  0.00  0.00    +0.073 A 
ATOM     18  C   LIG    1       39.355  22.603 192.908  0.00  0.00    +0.064 A 
ATOM     19  N   LIG    1       39.049  22.491 191.581  0.00  0.00    -0.228 NA
BRANCH  18  20
ATOM     20  C   LIG    1       40.093  23.818 193.439  0.00  0.00    +0.140 C 
BRANCH  20  21
ATOM     21  N   LIG    1       40.047  23.767 194.933  0.00  0.00    -0.292 NA
ATOM     22  C   LIG    1       39.365  24.948 195.557  0.00  0.00    +0.113 C 
ATOM     23  C   LIG    1       40.250  26.209 195.392  0.00  0.00    +0.175 C 
ATOM     24  O   LIG    1       41.506  25.936 196.014  0.00  0.00    -0.377 OA
ATOM     25  C   LIG    1       42.221  24.885 195.368  0.00  0.00    +0.175 C 
ATOM     26  C   LIG    1       41.396  23.584 195.537  0.00  0.00    +0.113 C 
ENDBRANCH  20  21
ENDBRANCH  18  20
ENDBRANCH   2  15
TORSDOF 6
ENDMDL
MODEL 7
REMARK VINA RESULT:      -6.4     26.489     28.346
REMARK  Name = ZINC000070728784
REMARK                            x       y       z     vdW  Elec       q    Type
REMARK                         _______ _______ _______ _____ _____    ______ ____
ROOT
ATOM      1  C   LIG    1       17.299  37.442 208.814  0.00  0.00    +0.251 C 
ATOM      2  N   LIG    1       18.153  37.382 209.893  0.00  0.00    -0.261 N 
ATOM      3  H   LIG    1       18.441  36.439 210.176  0.00  0.00    +0.157 HD
ATOM      4  O   LIG    1       17.077  38.522 208.284  0.00  0.00    -0.270 OA
ENDROOT
BRANCH   1   6
ATOM      5  C   LIG    1       15.426  35.738 208.839  0.00  0.00    +0.020 A 
ATOM      6  C   LIG    1       16.675  36.207 208.354  0.00  0.00    +0.050 A 
ATOM      7  C   LIG    1       17.333  35.455 207.368  0.00  0.00    +0.014 A 
ATOM      8  C   LIG    1       16.760  34.310 206.832  0.00  0.00    +0.001 A 
ATOM      9  C   LIG    1       15.509  33.889 207.276  0.00  0.00    +0.001 A 
ATOM     10  C   LIG    1       14.847  34.596 208.269  0.00  0.00    +0.015 A 
BRANCH   5  11
ATOM     11  S   LIG    1       14.549  36.494 210.148  0.00  0.00    -0.122 S 
BRANCH  11  13
ATOM     12  C   LIG    1       16.207  35.060 211.705  0.00  0.00    +0.019 C 
ATOM     13  C   LIG    1       14.709  35.290 211.513  0.00  0.00    +0.045 C 
ATOM     14  C   LIG    1       14.077  35.947 212.740  0.00  0.00    +0.019 C 
ENDBRANCH  11  13
ENDBRANCH   5  11
ENDBRANCH   1   6
BRANCH   2  15
ATOM     15  C   LIG    1       18.727  38.444 210.602  0.00  0.00    +0.165 A 
ATOM     16  S   LIG    1       18.062  38.795 212.153  0.00  0.00    -0.060 S 
ATOM     17  C   LIG    1       19.194  40.076 212.268  0.00  0.00    +0.073 A 
ATOM     18  C   LIG    1       19.971  40.148 211.153  0.00  0.00    +0.064 A 
ATOM     19  N   LIG    1       19.699  39.210 210.197  0.00  0.00    -0.228 NA
BRANCH  18  20
ATOM     20  C   LIG    1       21.070  41.175 210.949  0.00  0.00    +0.140 C 
BRANCH  20  21
ATOM     21  N   LIG    1       22.231  40.483 210.310  0.00  0.00    -0.292 NA
ATOM     22  C   LIG    1       23.385  40.257 211.241  0.00  0.00    +0.113 C 
ATOM     23  C   LIG    1       24.067  41.609 211.567  0.00  0.00    +0.175 C 
ATOM     24  O   LIG    1       24.492  42.184 210.331  0.00  0.00    -0.377 OA
ATOM     25  C   LIG    1       23.400  42.508 209.472  0.00  0.00    +0.175 C 
ATOM     26  C   LIG    1       22.702  41.181 209.081  0.00  0.00    +0.113 C 
ENDBRANCH  20  21
ENDBRANCH  18  20
ENDBRANCH   2  15
TORSDOF 6
ENDMDL
MODEL 8
REMARK VINA RESULT:      -6.4     24.888     27.243
REMARK  Name = ZINC000070728784
REMARK                            x       y       z     vdW  Elec       q    Type
REMARK                         _______ _______ _______ _____ _____    ______ ____
ROOT
ATOM      1  C   LIG    1       23.047  42.169 209.180  0.00  0.00    +0.251 C 
ATOM      2  N   LIG    1       21.710  42.405 209.410  0.00  0.00    -0.261 N 
ATOM      3  H   LIG    1       21.415  43.385 209.331  0.00  0.00    +0.157 HD
ATOM      4  O   LIG    1       23.437  41.016 209.046  0.00  0.00    -0.270 OA
ENDROOT
BRANCH   1   6
ATOM      5  C   LIG    1       24.662  43.797 210.253  0.00  0.00    +0.020 A 
ATOM      6  C   LIG    1       23.954  43.309 209.124  0.00  0.00    +0.050 A 
ATOM      7  C   LIG    1       24.151  43.943 207.887  0.00  0.00    +0.014 A 
ATOM      8  C   LIG    1       25.056  44.985 207.747  0.00  0.00    +0.001 A 
ATOM      9  C   LIG    1       25.786  45.421 208.850  0.00  0.00    +0.001 A 
ATOM     10  C   LIG    1       25.593  44.832 210.091  0.00  0.00    +0.015 A 
BRANCH   5  11
ATOM     11  S   LIG    1       24.429  43.196 211.877  0.00  0.00    -0.122 S 
BRANCH  11  13
ATOM     12  C   LIG    1       26.689  42.054 212.782  0.00  0.00    +0.019 C 
ATOM     13  C   LIG    1       25.474  41.698 211.926  0.00  0.00    +0.045 C 
ATOM     14  C   LIG    1       24.626  40.605 212.578  0.00  0.00    +0.019 C 
ENDBRANCH  11  13
ENDBRANCH   5  11
ENDBRANCH   1   6
BRANCH   2  15
ATOM     15  C   LIG    1       20.697  41.473 209.667  0.00  0.00    +0.165 A 
ATOM     16  S   LIG    1       20.531  40.931 211.294  0.00  0.00    -0.060 S 
ATOM     17  C   LIG    1       19.252  39.929 210.753  0.00  0.00    +0.073 A 
ATOM     18  C   LIG    1       19.049  40.068 209.415  0.00  0.00    +0.064 A 
ATOM     19  N   LIG    1       19.882  40.955 208.794  0.00  0.00    -0.228 NA
BRANCH  18  20
ATOM     20  C   LIG    1       17.986  39.317 208.634  0.00  0.00    +0.140 C 
BRANCH  20  21
ATOM     21  N   LIG    1       17.242  38.445 209.594  0.00  0.00    -0.292 NA
ATOM     22  C   LIG    1       17.377  36.979 209.306  0.00  0.00    +0.113 C 
ATOM     23  C   LIG    1       16.597  36.626 208.015  0.00  0.00    +0.175 C 
ATOM     24  O   LIG    1       15.234  37.000 208.221  0.00  0.00    -0.377 OA
ATOM     25  C   LIG    1       15.070  38.407 208.390  0.00  0.00    +0.175 C 
ATOM     26  C   LIG    1       15.802  38.810 209.695  0.00  0.00    +0.113 C 
ENDBRANCH  20  21
ENDBRANCH  18  20
ENDBRANCH   2  15
TORSDOF 6
ENDMDL
MODEL 9
REMARK VINA RESULT:      -6.4     24.560     26.585
REMARK  Name = ZINC000070728784
REMARK                            x       y       z     vdW  Elec       q    Type
REMARK                         _______ _______ _______ _____ _____    ______ ____
ROOT
ATOM      1  C   LIG    1       18.629  39.662 208.258  0.00  0.00    +0.251 C 
ATOM      2  N   LIG    1       19.496  39.743 209.324  0.00  0.00    -0.261 N 
ATOM      3  H   LIG    1       19.331  39.067 210.080  0.00  0.00    +0.157 HD
ATOM      4  O   LIG    1       18.882  40.281 207.232  0.00  0.00    -0.270 OA
ENDROOT
BRANCH   1   6
ATOM      5  C   LIG    1       16.205  39.353 208.920  0.00  0.00    +0.020 A 
ATOM      6  C   LIG    1       17.426  38.851 208.400  0.00  0.00    +0.050 A 
ATOM      7  C   LIG    1       17.474  37.511 207.985  0.00  0.00    +0.014 A 
ATOM      8  C   LIG    1       16.346  36.704 208.023  0.00  0.00    +0.001 A 
ATOM      9  C   LIG    1       15.138  37.223 208.484  0.00  0.00    +0.001 A 
ATOM     10  C   LIG    1       15.067  38.535 208.927  0.00  0.00    +0.015 A 
BRANCH   5  11
ATOM     11  S   LIG    1       16.024  40.957 209.590  0.00  0.00    -0.122 S 
BRANCH  11  13
ATOM     12  C   LIG    1       17.580  41.651 211.671  0.00  0.00    +0.019 C 
ATOM     13  C   LIG    1       16.408  40.720 211.361  0.00  0.00    +0.045 C 
ATOM     14  C   LIG    1       15.149  41.122 212.129  0.00  0.00    +0.019 C 
ENDBRANCH  11  13
ENDBRANCH   5  11
ENDBRANCH   1   6
BRANCH   2  15
ATOM     15  C   LIG    1       20.609  40.579 209.474  0.00  0.00    +0.165 A 
ATOM     16  S   LIG    1       22.150  39.814 209.580  0.00  0.00    -0.060 S 
ATOM     17  C   LIG    1       22.832  41.376 209.755  0.00  0.00    +0.073 A 
ATOM     18  C   LIG    1       21.871  42.339 209.725  0.00  0.00    +0.064 A 
ATOM     19  N   LIG    1       20.595  41.878 209.565  0.00  0.00    -0.228 NA
BRANCH  18  20
ATOM     20  C   LIG    1       22.154  43.825 209.853  0.00  0.00    +0.140 C 
BRANCH  20  21
ATOM     21  N   LIG    1       23.607  44.041 209.576  0.00  0.00    -0.292 NA
ATOM     22  C   LIG    1       24.238  45.089 210.444  0.00  0.00    +0.113 C 
ATOM     23  C   LIG    1       23.711  46.489 210.040  0.00  0.00    +0.175 C 
ATOM     24  O   LIG    1       24.028  46.685 208.661  0.00  0.00    -0.377 OA
ATOM     25  C   LIG    1       23.352  45.765 207.807  0.00  0.00    +0.175 C 
ATOM     26  C   LIG    1       23.873  44.345 208.142  0.00  0.00    +0.113 C 
ENDBRANCH  20  21
ENDBRANCH  18  20
ENDBRANCH   2  15
TORSDOF 6
ENDMDL
