MODEL 1
REMARK VINA RESULT:      -7.1      0.000      0.000
REMARK  Name = ZINC000000538627
REMARK                            x       y       z     vdW  Elec       q    Type
REMARK                         _______ _______ _______ _____ _____    ______ ____
ROOT
ATOM      1  C   LIG    1       28.446  25.082 206.421  0.00  0.00    +0.166 C 
ENDROOT
BRANCH   1   2
ATOM      2  C   LIG    1       27.186  25.688 205.763  0.00  0.00    -0.007 A 
ATOM      3  C   LIG    1       26.766  27.014 205.947  0.00  0.00    +0.007 A 
ATOM      4  C   LIG    1       25.613  27.485 205.326  0.00  0.00    +0.000 A 
ATOM      5  C   LIG    1       24.861  26.643 204.514  0.00  0.00    +0.000 A 
ATOM      6  C   LIG    1       25.263  25.328 204.324  0.00  0.00    +0.000 A 
ATOM      7  C   LIG    1       26.416  24.855 204.945  0.00  0.00    +0.007 A 
ENDBRANCH   1   2
BRANCH   1   8
ATOM      8  C   LIG    1       28.640  25.734 207.808  0.00  0.00    -0.007 A 
ATOM      9  C   LIG    1       27.540  26.090 208.598  0.00  0.00    +0.007 A 
ATOM     10  C   LIG    1       27.720  26.703 209.834  0.00  0.00    +0.000 A 
ATOM     11  C   LIG    1       29.002  26.970 210.300  0.00  0.00    +0.000 A 
ATOM     12  C   LIG    1       30.104  26.618 209.531  0.00  0.00    +0.000 A 
ATOM     13  C   LIG    1       29.925  26.005 208.295  0.00  0.00    +0.007 A 
ENDBRANCH   1   8
BRANCH   1  15
ATOM     14  C   LIG    1       29.387  26.293 204.391  0.00  0.00    +0.195 C 
ATOM     15  O   LIG    1       29.604  25.445 205.562  0.00  0.00    -0.363 OA
ENDBRANCH   1  15
BRANCH   1  16
ATOM     16  C   LIG    1       28.368  23.535 206.573  0.00  0.00    +0.325 C 
BRANCH  16  17
ATOM     17  C   LIG    1       29.303  22.902 205.558  0.00  0.00    +0.350 C 
ATOM     18  O   LIG    1       28.908  22.416 204.503  0.00  0.00    -0.247 OA
BRANCH  17  19
ATOM     19  O   LIG    1       30.636  22.798 205.832  0.00  0.00    -0.478 OA
ATOM     20  H   LIG    1       31.062  22.180 205.233  0.00  0.00    +0.295 HD
ENDBRANCH  17  19
ENDBRANCH  16  17
BRANCH  16  21
ATOM     21  O   LIG    1       28.808  23.131 207.928  0.00  0.00    -0.444 OA
BRANCH  21  22
ATOM     22  C   LIG    1       28.175  22.157 208.613  0.00  0.00    +0.319 A 
ATOM     23  N   LIG    1       28.726  20.947 208.659  0.00  0.00    -0.200 NA
ATOM     24  C   LIG    1       28.105  20.007 209.348  0.00  0.00    +0.045 A 
ATOM     25  C   LIG    1       28.728  18.634 209.405  0.00  0.00    +0.066 C 
ATOM     26  C   LIG    1       26.905  20.296 209.979  0.00  0.00    +0.046 A 
ATOM     27  C   LIG    1       26.382  21.578 209.880  0.00  0.00    +0.045 A 
ATOM     28  C   LIG    1       25.088  21.964 210.552  0.00  0.00    +0.066 C 
ATOM     29  N   LIG    1       27.033  22.500 209.194  0.00  0.00    -0.200 NA
ENDBRANCH  21  22
ENDBRANCH  16  21
ENDBRANCH   1  16
TORSDOF 8
ENDMDL
MODEL 2
REMARK VINA RESULT:      -7.0     29.597     32.963
REMARK  Name = ZINC000000538627
REMARK                            x       y       z     vdW  Elec       q    Type
REMARK                         _______ _______ _______ _____ _____    ______ ____
ROOT
ATOM      1  C   LIG    1       21.118  48.612 184.712  0.00  0.00    +0.166 C 
ENDROOT
BRANCH   1   2
ATOM      2  C   LIG    1       20.782  48.637 183.204  0.00  0.00    -0.007 A 
ATOM      3  C   LIG    1       19.544  48.249 182.670  0.00  0.00    +0.007 A 
ATOM      4  C   LIG    1       19.319  48.292 181.297  0.00  0.00    +0.000 A 
ATOM      5  C   LIG    1       20.323  48.721 180.437  0.00  0.00    +0.000 A 
ATOM      6  C   LIG    1       21.554  49.108 180.950  0.00  0.00    +0.000 A 
ATOM      7  C   LIG    1       21.780  49.065 182.323  0.00  0.00    +0.007 A 
ENDBRANCH   1   2
BRANCH   1   8
ATOM      8  C   LIG    1       20.034  49.409 185.472  0.00  0.00    -0.007 A 
ATOM      9  C   LIG    1       19.484  48.923 186.664  0.00  0.00    +0.007 A 
ATOM     10  C   LIG    1       18.486  49.632 187.328  0.00  0.00    +0.000 A 
ATOM     11  C   LIG    1       18.025  50.836 186.812  0.00  0.00    +0.000 A 
ATOM     12  C   LIG    1       18.565  51.334 185.632  0.00  0.00    +0.000 A 
ATOM     13  C   LIG    1       19.561  50.627 184.967  0.00  0.00    +0.007 A 
ENDBRANCH   1   8
BRANCH   1  15
ATOM     14  C   LIG    1       22.435  50.753 185.104  0.00  0.00    +0.195 C 
ATOM     15  O   LIG    1       22.420  49.307 184.881  0.00  0.00    -0.363 OA
ENDBRANCH   1  15
BRANCH   1  16
ATOM     16  C   LIG    1       21.211  47.169 185.289  0.00  0.00    +0.325 C 
BRANCH  16  17
ATOM     17  C   LIG    1       21.959  46.299 184.295  0.00  0.00    +0.350 C 
ATOM     18  O   LIG    1       21.410  45.422 183.635  0.00  0.00    -0.247 OA
BRANCH  17  19
ATOM     19  O   LIG    1       23.310  46.432 184.154  0.00  0.00    -0.478 OA
ATOM     20  H   LIG    1       23.558  46.446 183.226  0.00  0.00    +0.295 HD
ENDBRANCH  17  19
ENDBRANCH  16  17
BRANCH  16  21
ATOM     21  O   LIG    1       21.967  47.176 186.564  0.00  0.00    -0.444 OA
BRANCH  21  22
ATOM     22  C   LIG    1       21.915  46.134 187.419  0.00  0.00    +0.319 A 
ATOM     23  N   LIG    1       22.669  45.066 187.170  0.00  0.00    -0.200 NA
ATOM     24  C   LIG    1       22.622  44.060 188.024  0.00  0.00    +0.045 A 
ATOM     25  C   LIG    1       23.477  42.848 187.748  0.00  0.00    +0.066 C 
ATOM     26  C   LIG    1       21.787  44.134 189.129  0.00  0.00    +0.046 A 
ATOM     27  C   LIG    1       21.020  45.275 189.320  0.00  0.00    +0.045 A 
ATOM     28  C   LIG    1       20.101  45.427 190.507  0.00  0.00    +0.066 C 
ATOM     29  N   LIG    1       21.098  46.269 188.455  0.00  0.00    -0.200 NA
ENDBRANCH  21  22
ENDBRANCH  16  21
ENDBRANCH   1  16
TORSDOF 8
ENDMDL
MODEL 3
REMARK VINA RESULT:      -6.9     19.825     22.567
REMARK  Name = ZINC000000538627
REMARK                            x       y       z     vdW  Elec       q    Type
REMARK                         _______ _______ _______ _____ _____    ______ ____
ROOT
ATOM      1  C   LIG    1       36.754  19.804 187.874  0.00  0.00    +0.166 C 
ENDROOT
BRANCH   1   2
ATOM      2  C   LIG    1       36.854  20.337 189.321  0.00  0.00    -0.007 A 
ATOM      3  C   LIG    1       35.900  21.178 189.914  0.00  0.00    +0.007 A 
ATOM      4  C   LIG    1       36.064  21.624 191.223  0.00  0.00    +0.000 A 
ATOM      5  C   LIG    1       37.180  21.240 191.958  0.00  0.00    +0.000 A 
ATOM      6  C   LIG    1       38.132  20.409 191.384  0.00  0.00    +0.000 A 
ATOM      7  C   LIG    1       37.970  19.963 190.076  0.00  0.00    +0.007 A 
ENDBRANCH   1   2
BRANCH   1   8
ATOM      8  C   LIG    1       37.193  18.322 187.864  0.00  0.00    -0.007 A 
ATOM      9  C   LIG    1       38.265  17.893 187.074  0.00  0.00    +0.007 A 
ATOM     10  C   LIG    1       38.637  16.552 187.047  0.00  0.00    +0.000 A 
ATOM     11  C   LIG    1       37.945  15.621 187.810  0.00  0.00    +0.000 A 
ATOM     12  C   LIG    1       36.882  16.032 188.605  0.00  0.00    +0.000 A 
ATOM     13  C   LIG    1       36.509  17.372 188.632  0.00  0.00    +0.007 A 
ENDBRANCH   1   8
BRANCH   1  15
ATOM     14  C   LIG    1       38.691  21.446 187.721  0.00  0.00    +0.195 C 
ATOM     15  O   LIG    1       37.714  20.586 187.053  0.00  0.00    -0.363 OA
ENDBRANCH   1  15
BRANCH   1  16
ATOM     16  C   LIG    1       35.323  19.933 187.277  0.00  0.00    +0.325 C 
BRANCH  16  17
ATOM     17  C   LIG    1       35.367  20.920 186.125  0.00  0.00    +0.350 C 
ATOM     18  O   LIG    1       34.805  22.010 186.162  0.00  0.00    -0.247 OA
BRANCH  17  19
ATOM     19  O   LIG    1       35.999  20.584 184.963  0.00  0.00    -0.478 OA
ATOM     20  H   LIG    1       36.576  21.293 184.669  0.00  0.00    +0.295 HD
ENDBRANCH  17  19
ENDBRANCH  16  17
BRANCH  16  21
ATOM     21  O   LIG    1       34.867  18.624 186.752  0.00  0.00    -0.444 OA
BRANCH  21  22
ATOM     22  C   LIG    1       33.677  18.490 186.133  0.00  0.00    +0.319 A 
ATOM     23  N   LIG    1       33.660  18.156 184.845  0.00  0.00    -0.200 NA
ATOM     24  C   LIG    1       32.488  18.010 184.256  0.00  0.00    +0.045 A 
ATOM     25  C   LIG    1       32.464  17.629 182.796  0.00  0.00    +0.066 C 
ATOM     26  C   LIG    1       31.323  18.224 184.978  0.00  0.00    +0.046 A 
ATOM     27  C   LIG    1       31.415  18.580 186.316  0.00  0.00    +0.045 A 
ATOM     28  C   LIG    1       30.189  18.815 187.164  0.00  0.00    +0.066 C 
ATOM     29  N   LIG    1       32.603  18.707 186.881  0.00  0.00    -0.200 NA
ENDBRANCH  21  22
ENDBRANCH  16  21
ENDBRANCH   1  16
TORSDOF 8
ENDMDL
MODEL 4
REMARK VINA RESULT:      -6.8     28.453     31.876
REMARK  Name = ZINC000000538627
REMARK                            x       y       z     vdW  Elec       q    Type
REMARK                         _______ _______ _______ _____ _____    ______ ____
ROOT
ATOM      1  C   LIG    1       23.626  45.212 182.327  0.00  0.00    +0.166 C 
ENDROOT
BRANCH   1   2
ATOM      2  C   LIG    1       25.045  44.644 182.104  0.00  0.00    -0.007 A 
ATOM      3  C   LIG    1       25.946  44.355 183.139  0.00  0.00    +0.007 A 
ATOM      4  C   LIG    1       27.213  43.851 182.857  0.00  0.00    +0.000 A 
ATOM      5  C   LIG    1       27.601  43.629 181.541  0.00  0.00    +0.000 A 
ATOM      6  C   LIG    1       26.720  43.911 180.505  0.00  0.00    +0.000 A 
ATOM      7  C   LIG    1       25.453  44.415 180.786  0.00  0.00    +0.007 A 
ENDBRANCH   1   2
BRANCH   1   8
ATOM      8  C   LIG    1       22.620  44.350 181.532  0.00  0.00    -0.007 A 
ATOM      9  C   LIG    1       22.634  42.953 181.625  0.00  0.00    +0.007 A 
ATOM     10  C   LIG    1       21.744  42.181 180.884  0.00  0.00    +0.000 A 
ATOM     11  C   LIG    1       20.826  42.793 180.039  0.00  0.00    +0.000 A 
ATOM     12  C   LIG    1       20.795  44.179 179.940  0.00  0.00    +0.000 A 
ATOM     13  C   LIG    1       21.684  44.951 180.680  0.00  0.00    +0.007 A 
ENDBRANCH   1   8
BRANCH   1  15
ATOM     14  C   LIG    1       24.745  47.477 182.032  0.00  0.00    +0.195 C 
ATOM     15  O   LIG    1       23.613  46.589 181.769  0.00  0.00    -0.363 OA
ENDBRANCH   1  15
BRANCH   1  16
ATOM     16  C   LIG    1       23.216  45.248 183.828  0.00  0.00    +0.325 C 
BRANCH  16  17
ATOM     17  C   LIG    1       22.011  46.161 183.978  0.00  0.00    +0.350 C 
ATOM     18  O   LIG    1       20.856  45.752 183.911  0.00  0.00    -0.247 OA
BRANCH  17  19
ATOM     19  O   LIG    1       22.190  47.504 184.133  0.00  0.00    -0.478 OA
ATOM     20  H   LIG    1       21.972  47.975 183.325  0.00  0.00    +0.295 HD
ENDBRANCH  17  19
ENDBRANCH  16  17
BRANCH  16  21
ATOM     21  O   LIG    1       22.833  43.893 184.287  0.00  0.00    -0.444 OA
BRANCH  21  22
ATOM     22  C   LIG    1       23.272  43.397 185.462  0.00  0.00    +0.319 A 
ATOM     23  N   LIG    1       24.124  42.376 185.446  0.00  0.00    -0.200 NA
ATOM     24  C   LIG    1       24.560  41.911 186.603  0.00  0.00    +0.045 A 
ATOM     25  C   LIG    1       25.529  40.755 186.589  0.00  0.00    +0.066 C 
ATOM     26  C   LIG    1       24.110  42.479 187.785  0.00  0.00    +0.046 A 
ATOM     27  C   LIG    1       23.212  43.535 187.728  0.00  0.00    +0.045 A 
ATOM     28  C   LIG    1       22.692  44.207 188.975  0.00  0.00    +0.066 C 
ATOM     29  N   LIG    1       22.804  43.985 186.555  0.00  0.00    -0.200 NA
ENDBRANCH  21  22
ENDBRANCH  16  21
ENDBRANCH   1  16
TORSDOF 8
ENDMDL
MODEL 5
REMARK VINA RESULT:      -6.7     15.980     18.100
REMARK  Name = ZINC000000538627
REMARK                            x       y       z     vdW  Elec       q    Type
REMARK                         _______ _______ _______ _____ _____    ______ ____
ROOT
ATOM      1  C   LIG    1       16.405  37.788 209.411  0.00  0.00    +0.166 C 
ENDROOT
BRANCH   1   2
ATOM      2  C   LIG    1       16.347  36.408 208.718  0.00  0.00    -0.007 A 
ATOM      3  C   LIG    1       15.405  35.415 209.025  0.00  0.00    +0.007 A 
ATOM      4  C   LIG    1       15.422  34.192 208.360  0.00  0.00    +0.000 A 
ATOM      5  C   LIG    1       16.377  33.940 207.381  0.00  0.00    +0.000 A 
ATOM      6  C   LIG    1       17.316  34.913 207.067  0.00  0.00    +0.000 A 
ATOM      7  C   LIG    1       17.300  36.136 207.731  0.00  0.00    +0.007 A 
ENDBRANCH   1   2
BRANCH   1   8
ATOM      8  C   LIG    1       15.864  37.638 210.851  0.00  0.00    -0.007 A 
ATOM      9  C   LIG    1       16.340  36.631 211.700  0.00  0.00    +0.007 A 
ATOM     10  C   LIG    1       15.828  36.483 212.985  0.00  0.00    +0.000 A 
ATOM     11  C   LIG    1       14.834  37.339 213.443  0.00  0.00    +0.000 A 
ATOM     12  C   LIG    1       14.355  38.347 212.615  0.00  0.00    +0.000 A 
ATOM     13  C   LIG    1       14.866  38.496 211.330  0.00  0.00    +0.007 A 
ENDBRANCH   1   8
BRANCH   1  15
ATOM     14  C   LIG    1       14.222  38.179 208.165  0.00  0.00    +0.195 C 
ATOM     15  O   LIG    1       15.499  38.694 208.658  0.00  0.00    -0.363 OA
ENDBRANCH   1  15
BRANCH   1  16
ATOM     16  C   LIG    1       17.840  38.389 209.449  0.00  0.00    +0.325 C 
BRANCH  16  17
ATOM     17  C   LIG    1       17.928  39.495 208.412  0.00  0.00    +0.350 C 
ATOM     18  O   LIG    1       18.576  39.385 207.376  0.00  0.00    -0.247 OA
BRANCH  17  19
ATOM     19  O   LIG    1       17.321  40.695 208.643  0.00  0.00    -0.478 OA
ATOM     20  H   LIG    1       16.478  40.747 208.186  0.00  0.00    +0.295 HD
ENDBRANCH  17  19
ENDBRANCH  16  17
BRANCH  16  21
ATOM     21  O   LIG    1       18.115  38.976 210.781  0.00  0.00    -0.444 OA
BRANCH  21  22
ATOM     22  C   LIG    1       19.356  38.977 211.307  0.00  0.00    +0.319 A 
ATOM     23  N   LIG    1       20.400  38.971 210.481  0.00  0.00    -0.200 NA
ATOM     24  C   LIG    1       21.610  38.990 211.009  0.00  0.00    +0.045 A 
ATOM     25  C   LIG    1       22.796  38.986 210.076  0.00  0.00    +0.066 C 
ATOM     26  C   LIG    1       21.760  38.997 212.388  0.00  0.00    +0.046 A 
ATOM     27  C   LIG    1       20.626  38.992 213.189  0.00  0.00    +0.045 A 
ATOM     28  C   LIG    1       20.717  39.012 214.695  0.00  0.00    +0.066 C 
ATOM     29  N   LIG    1       19.429  38.985 212.631  0.00  0.00    -0.200 NA
ENDBRANCH  21  22
ENDBRANCH  16  21
ENDBRANCH   1  16
TORSDOF 8
ENDMDL
MODEL 6
REMARK VINA RESULT:      -6.7     11.444     14.037
REMARK  Name = ZINC000000538627
REMARK                            x       y       z     vdW  Elec       q    Type
REMARK                         _______ _______ _______ _____ _____    ______ ____
ROOT
ATOM      1  C   LIG    1       29.186  17.028 196.833  0.00  0.00    +0.166 C 
ENDROOT
BRANCH   1   2
ATOM      2  C   LIG    1       28.025  16.377 197.618  0.00  0.00    -0.007 A 
ATOM      3  C   LIG    1       28.113  15.973 198.958  0.00  0.00    +0.007 A 
ATOM      4  C   LIG    1       27.024  15.386 199.595  0.00  0.00    +0.000 A 
ATOM      5  C   LIG    1       25.832  15.192 198.906  0.00  0.00    +0.000 A 
ATOM      6  C   LIG    1       25.729  15.586 197.579  0.00  0.00    +0.000 A 
ATOM      7  C   LIG    1       26.818  16.173 196.941  0.00  0.00    +0.007 A 
ENDBRANCH   1   2
BRANCH   1   8
ATOM      8  C   LIG    1       29.636  18.301 197.586  0.00  0.00    -0.007 A 
ATOM      9  C   LIG    1       30.955  18.447 198.032  0.00  0.00    +0.007 A 
ATOM     10  C   LIG    1       31.348  19.582 198.734  0.00  0.00    +0.000 A 
ATOM     11  C   LIG    1       30.428  20.590 199.001  0.00  0.00    +0.000 A 
ATOM     12  C   LIG    1       29.117  20.462 198.560  0.00  0.00    +0.000 A 
ATOM     13  C   LIG    1       28.723  19.328 197.858  0.00  0.00    +0.007 A 
ENDBRANCH   1   8
BRANCH   1  15
ATOM     14  C   LIG    1       29.118  18.670 194.891  0.00  0.00    +0.195 C 
ATOM     15  O   LIG    1       28.648  17.430 195.507  0.00  0.00    -0.363 OA
ENDBRANCH   1  15
BRANCH   1  16
ATOM     16  C   LIG    1       30.400  16.074 196.642  0.00  0.00    +0.325 C 
BRANCH  16  17
ATOM     17  C   LIG    1       29.876  14.672 196.383  0.00  0.00    +0.350 C 
ATOM     18  O   LIG    1       30.044  13.745 197.169  0.00  0.00    -0.247 OA
BRANCH  17  19
ATOM     19  O   LIG    1       29.243  14.387 195.209  0.00  0.00    -0.478 OA
ATOM     20  H   LIG    1       29.053  13.448 195.141  0.00  0.00    +0.295 HD
ENDBRANCH  17  19
ENDBRANCH  16  17
BRANCH  16  21
ATOM     21  O   LIG    1       31.203  16.494 195.470  0.00  0.00    -0.444 OA
BRANCH  21  22
ATOM     22  C   LIG    1       32.521  16.223 195.385  0.00  0.00    +0.319 A 
ATOM     23  N   LIG    1       33.211  16.051 196.509  0.00  0.00    -0.200 NA
ATOM     24  C   LIG    1       34.497  15.768 196.413  0.00  0.00    +0.045 A 
ATOM     25  C   LIG    1       35.283  15.569 197.685  0.00  0.00    +0.066 C 
ATOM     26  C   LIG    1       35.090  15.678 195.162  0.00  0.00    +0.046 A 
ATOM     27  C   LIG    1       34.311  15.881 194.031  0.00  0.00    +0.045 A 
ATOM     28  C   LIG    1       34.888  15.785 192.640  0.00  0.00    +0.066 C 
ATOM     29  N   LIG    1       33.025  16.150 194.160  0.00  0.00    -0.200 NA
ENDBRANCH  21  22
ENDBRANCH  16  21
ENDBRANCH   1  16
TORSDOF 8
ENDMDL
MODEL 7
REMARK VINA RESULT:      -6.6     30.012     33.314
REMARK  Name = ZINC000000538627
REMARK                            x       y       z     vdW  Elec       q    Type
REMARK                         _______ _______ _______ _____ _____    ______ ____
ROOT
ATOM      1  C   LIG    1       22.944  47.614 182.945  0.00  0.00    +0.166 C 
ENDROOT
BRANCH   1   2
ATOM      2  C   LIG    1       22.724  49.019 183.551  0.00  0.00    -0.007 A 
ATOM      3  C   LIG    1       23.523  49.569 184.565  0.00  0.00    +0.007 A 
ATOM      4  C   LIG    1       23.257  50.840 185.065  0.00  0.00    +0.000 A 
ATOM      5  C   LIG    1       22.192  51.581 184.564  0.00  0.00    +0.000 A 
ATOM      6  C   LIG    1       21.393  51.050 183.562  0.00  0.00    +0.000 A 
ATOM      7  C   LIG    1       21.657  49.779 183.060  0.00  0.00    +0.007 A 
ENDBRANCH   1   2
BRANCH   1   8
ATOM      8  C   LIG    1       24.226  47.645 182.083  0.00  0.00    -0.007 A 
ATOM      9  C   LIG    1       25.412  47.051 182.532  0.00  0.00    +0.007 A 
ATOM     10  C   LIG    1       26.571  47.107 181.765  0.00  0.00    +0.000 A 
ATOM     11  C   LIG    1       26.563  47.756 180.536  0.00  0.00    +0.000 A 
ATOM     12  C   LIG    1       25.393  48.345 180.073  0.00  0.00    +0.000 A 
ATOM     13  C   LIG    1       24.233  48.290 180.840  0.00  0.00    +0.007 A 
ENDBRANCH   1   8
BRANCH   1  15
ATOM     14  C   LIG    1       21.896  46.285 181.045  0.00  0.00    +0.195 C 
ATOM     15  O   LIG    1       21.785  47.335 182.057  0.00  0.00    -0.363 OA
ENDBRANCH   1  15
BRANCH   1  16
ATOM     16  C   LIG    1       23.062  46.500 184.024  0.00  0.00    +0.325 C 
BRANCH  16  17
ATOM     17  C   LIG    1       21.805  46.517 184.876  0.00  0.00    +0.350 C 
ATOM     18  O   LIG    1       21.832  46.638 186.097  0.00  0.00    -0.247 OA
BRANCH  17  19
ATOM     19  O   LIG    1       20.585  46.332 184.295  0.00  0.00    -0.478 OA
ATOM     20  H   LIG    1       20.522  45.458 183.901  0.00  0.00    +0.295 HD
ENDBRANCH  17  19
ENDBRANCH  16  17
BRANCH  16  21
ATOM     21  O   LIG    1       23.167  45.170 183.378  0.00  0.00    -0.444 OA
BRANCH  21  22
ATOM     22  C   LIG    1       23.874  44.169 183.939  0.00  0.00    +0.319 A 
ATOM     23  N   LIG    1       24.964  43.729 183.315  0.00  0.00    -0.200 NA
ATOM     24  C   LIG    1       25.657  42.759 183.883  0.00  0.00    +0.045 A 
ATOM     25  C   LIG    1       26.895  42.260 183.181  0.00  0.00    +0.066 C 
ATOM     26  C   LIG    1       25.227  42.220 185.087  0.00  0.00    +0.046 A 
ATOM     27  C   LIG    1       24.074  42.721 185.676  0.00  0.00    +0.045 A 
ATOM     28  C   LIG    1       23.557  42.190 186.990  0.00  0.00    +0.066 C 
ATOM     29  N   LIG    1       23.409  43.699 185.089  0.00  0.00    -0.200 NA
ENDBRANCH  21  22
ENDBRANCH  16  21
ENDBRANCH   1  16
TORSDOF 8
ENDMDL
MODEL 8
REMARK VINA RESULT:      -6.5     16.268     18.317
REMARK  Name = ZINC000000538627
REMARK                            x       y       z     vdW  Elec       q    Type
REMARK                         _______ _______ _______ _____ _____    ______ ____
ROOT
ATOM      1  C   LIG    1       18.691  40.171 211.271  0.00  0.00    +0.166 C 
ENDROOT
BRANCH   1   2
ATOM      2  C   LIG    1       18.656  39.671 212.733  0.00  0.00    -0.007 A 
ATOM      3  C   LIG    1       17.657  38.835 213.253  0.00  0.00    +0.007 A 
ATOM      4  C   LIG    1       17.690  38.432 214.584  0.00  0.00    +0.000 A 
ATOM      5  C   LIG    1       18.719  38.856 215.418  0.00  0.00    +0.000 A 
ATOM      6  C   LIG    1       19.715  39.684 214.919  0.00  0.00    +0.000 A 
ATOM      7  C   LIG    1       19.682  40.088 213.587  0.00  0.00    +0.007 A 
ENDBRANCH   1   2
BRANCH   1   8
ATOM      8  C   LIG    1       20.138  40.050 210.744  0.00  0.00    -0.007 A 
ATOM      9  C   LIG    1       20.898  38.898 210.979  0.00  0.00    +0.007 A 
ATOM     10  C   LIG    1       22.211  38.807 210.527  0.00  0.00    +0.000 A 
ATOM     11  C   LIG    1       22.784  39.864 209.831  0.00  0.00    +0.000 A 
ATOM     12  C   LIG    1       22.041  41.012 209.585  0.00  0.00    +0.000 A 
ATOM     13  C   LIG    1       20.729  41.105 210.036  0.00  0.00    +0.007 A 
ENDBRANCH   1   8
BRANCH   1  15
ATOM     14  C   LIG    1       17.323  42.073 212.263  0.00  0.00    +0.195 C 
ATOM     15  O   LIG    1       18.314  41.609 211.293  0.00  0.00    -0.363 OA
ENDBRANCH   1  15
BRANCH   1  16
ATOM     16  C   LIG    1       17.724  39.387 210.338  0.00  0.00    +0.325 C 
BRANCH  16  17
ATOM     17  C   LIG    1       17.514  40.195 209.071  0.00  0.00    +0.350 C 
ATOM     18  O   LIG    1       18.111  39.959 208.025  0.00  0.00    -0.247 OA
BRANCH  17  19
ATOM     19  O   LIG    1       16.679  41.274 209.081  0.00  0.00    -0.478 OA
ATOM     20  H   LIG    1       15.764  41.002 208.968  0.00  0.00    +0.295 HD
ENDBRANCH  17  19
ENDBRANCH  16  17
BRANCH  16  21
ATOM     21  O   LIG    1       18.318  38.081 209.965  0.00  0.00    -0.444 OA
BRANCH  21  22
ATOM     22  C   LIG    1       17.549  36.999 209.731  0.00  0.00    +0.319 A 
ATOM     23  N   LIG    1       17.381  36.595 208.474  0.00  0.00    -0.200 NA
ATOM     24  C   LIG    1       16.641  35.523 208.259  0.00  0.00    +0.045 A 
ATOM     25  C   LIG    1       16.450  35.060 206.836  0.00  0.00    +0.066 C 
ATOM     26  C   LIG    1       16.051  34.869 209.330  0.00  0.00    +0.046 A 
ATOM     27  C   LIG    1       16.260  35.352 210.614  0.00  0.00    +0.045 A 
ATOM     28  C   LIG    1       15.659  34.682 211.825  0.00  0.00    +0.066 C 
ATOM     29  N   LIG    1       17.016  36.419 210.798  0.00  0.00    -0.200 NA
ENDBRANCH  21  22
ENDBRANCH  16  21
ENDBRANCH   1  16
TORSDOF 8
ENDMDL
MODEL 9
REMARK VINA RESULT:      -6.5     32.202     35.561
REMARK  Name = ZINC000000538627
REMARK                            x       y       z     vdW  Elec       q    Type
REMARK                         _______ _______ _______ _____ _____    ______ ____
ROOT
ATOM      1  C   LIG    1       19.890  50.159 183.625  0.00  0.00    +0.166 C 
ENDROOT
BRANCH   1   2
ATOM      2  C   LIG    1       18.893  50.749 182.602  0.00  0.00    -0.007 A 
ATOM      3  C   LIG    1       17.647  50.179 182.304  0.00  0.00    +0.007 A 
ATOM      4  C   LIG    1       16.805  50.766 181.363  0.00  0.00    +0.000 A 
ATOM      5  C   LIG    1       17.193  51.928 180.706  0.00  0.00    +0.000 A 
ATOM      6  C   LIG    1       18.424  52.504 180.990  0.00  0.00    +0.000 A 
ATOM      7  C   LIG    1       19.267  51.917 181.930  0.00  0.00    +0.007 A 
ENDBRANCH   1   2
BRANCH   1   8
ATOM      8  C   LIG    1       19.181  50.041 184.992  0.00  0.00    -0.007 A 
ATOM      9  C   LIG    1       19.062  48.805 185.639  0.00  0.00    +0.007 A 
ATOM     10  C   LIG    1       18.396  48.699 186.856  0.00  0.00    +0.000 A 
ATOM     11  C   LIG    1       17.840  49.827 187.447  0.00  0.00    +0.000 A 
ATOM     12  C   LIG    1       17.955  51.063 186.821  0.00  0.00    +0.000 A 
ATOM     13  C   LIG    1       18.620  51.169 185.604  0.00  0.00    +0.007 A 
ENDBRANCH   1   8
BRANCH   1  15
ATOM     14  C   LIG    1       21.865  51.078 184.940  0.00  0.00    +0.195 C 
ATOM     15  O   LIG    1       21.008  51.130 183.755  0.00  0.00    -0.363 OA
ENDBRANCH   1  15
BRANCH   1  16
ATOM     16  C   LIG    1       20.446  48.770 183.198  0.00  0.00    +0.325 C 
BRANCH  16  17
ATOM     17  C   LIG    1       20.906  48.856 181.754  0.00  0.00    +0.350 C 
ATOM     18  O   LIG    1       20.428  48.162 180.862  0.00  0.00    -0.247 OA
BRANCH  17  19
ATOM     19  O   LIG    1       21.935  49.685 181.415  0.00  0.00    -0.478 OA
ATOM     20  H   LIG    1       21.655  50.329 180.759  0.00  0.00    +0.295 HD
ENDBRANCH  17  19
ENDBRANCH  16  17
BRANCH  16  21
ATOM     21  O   LIG    1       21.612  48.405 184.037  0.00  0.00    -0.444 OA
BRANCH  21  22
ATOM     22  C   LIG    1       22.463  47.425 183.673  0.00  0.00    +0.319 A 
ATOM     23  N   LIG    1       22.060  46.161 183.772  0.00  0.00    -0.200 NA
ATOM     24  C   LIG    1       22.896  45.211 183.396  0.00  0.00    +0.045 A 
ATOM     25  C   LIG    1       22.443  43.776 183.503  0.00  0.00    +0.066 C 
ATOM     26  C   LIG    1       24.159  45.549 182.932  0.00  0.00    +0.046 A 
ATOM     27  C   LIG    1       24.516  46.889 182.866  0.00  0.00    +0.045 A 
ATOM     28  C   LIG    1       25.868  47.328 182.360  0.00  0.00    +0.066 C 
ATOM     29  N   LIG    1       23.653  47.816 183.239  0.00  0.00    -0.200 NA
ENDBRANCH  21  22
ENDBRANCH  16  21
ENDBRANCH   1  16
TORSDOF 8
ENDMDL
