REMARK VINA RESULT:      -7.9      0.000      0.000
REMARK  Name = ZINC000006083858
REMARK                            x       y       z     vdW  Elec       q    Type
REMARK                         _______ _______ _______ _____ _____    ______ ____
ROOT
ATOM      1  C   LIG    1       22.968  44.831 184.657  0.00  0.00    +0.257 A 
ATOM      2  C   LIG    1       23.937  44.621 183.590  0.00  0.00    +0.185 A 
ATOM      3  N   LIG    1       24.843  43.676 183.646  0.00  0.00    -0.225 NA
ATOM      4  C   LIG    1       24.811  42.879 184.766  0.00  0.00    +0.092 A 
ATOM      5  C   LIG    1       25.749  41.835 184.895  0.00  0.00    +0.030 A 
ATOM      6  C   LIG    1       25.744  41.016 186.008  0.00  0.00    +0.002 A 
ATOM      7  C   LIG    1       24.797  41.213 187.028  0.00  0.00    +0.002 A 
ATOM      8  C   LIG    1       23.867  42.228 186.924  0.00  0.00    +0.030 A 
ATOM      9  C   LIG    1       23.857  43.080 185.803  0.00  0.00    +0.093 A 
ATOM     10  N   LIG    1       22.923  44.097 185.737  0.00  0.00    -0.208 NA
ENDROOT
BRANCH   2  11
ATOM     11  N   LIG    1       23.966  45.466 182.471  0.00  0.00    -0.311 N 
ATOM     12  C   LIG    1       24.983  46.530 182.619  0.00  0.00    +0.131 C 
BRANCH  11  13
ATOM     13  C   LIG    1       23.815  44.834 181.123  0.00  0.00    +0.075 C 
ATOM     14  C   LIG    1       23.813  45.898 179.987  0.00  0.00    +0.022 C 
ATOM     15  C   LIG    1       22.614  46.858 180.139  0.00  0.00    +0.002 C 
ATOM     16  C   LIG    1       21.285  46.094 180.105  0.00  0.00    +0.000 C 
ATOM     17  C   LIG    1       21.276  45.025 181.203  0.00  0.00    +0.002 C 
ATOM     18  C   LIG    1       22.467  44.059 181.039  0.00  0.00    +0.022 C 
ENDBRANCH  11  13
ENDBRANCH   2  11
BRANCH   1  19
ATOM     19  O   LIG    1       22.056  45.860 184.544  0.00  0.00    -0.465 OA
BRANCH  19  20
ATOM     20  C   LIG    1       21.892  46.947 185.519  0.00  0.00    +0.326 C 
BRANCH  20  23
ATOM     21  N   LIG    1       20.297  48.758 185.830  0.00  0.00    -0.310 N 
ATOM     22  H   LIG    1       21.065  49.175 186.338  0.00  0.00    +0.149 HD
ATOM     23  C   LIG    1       20.523  47.564 185.280  0.00  0.00    +0.251 C 
ATOM     24  O   LIG    1       19.671  47.007 184.596  0.00  0.00    -0.272 OA
BRANCH  21  25
ATOM     25  C   LIG    1       19.085  49.540 185.694  0.00  0.00    +0.073 C 
ATOM     26  C   LIG    1       19.493  50.961 185.302  0.00  0.00    +0.028 C 
BRANCH  25  28
ATOM     27  C   LIG    1       19.148  49.194 188.211  0.00  0.00    +0.009 C 
ATOM     28  C   LIG    1       18.249  49.481 186.996  0.00  0.00    +0.003 C 
ATOM     29  C   LIG    1       17.420  50.748 187.287  0.00  0.00    +0.009 C 
ENDBRANCH  25  28
ENDBRANCH  21  25
ENDBRANCH  20  23
ENDBRANCH  19  20
ENDBRANCH   1  19
TORSDOF 7
