REMARK VINA RESULT:      -8.4      1.436      2.133
REMARK  Name = ZINC000006084415
REMARK                            x       y       z     vdW  Elec       q    Type
REMARK                         _______ _______ _______ _____ _____    ______ ____
ROOT
ATOM      1  O   LIG    1       23.201  44.175 186.021  0.00  0.00    -0.451 OA
ENDROOT
BRANCH   1   2
ATOM      2  C   LIG    1       22.900  44.213 184.698  0.00  0.00    +0.356 C 
ATOM      3  O   LIG    1       21.920  44.863 184.360  0.00  0.00    -0.243 OA
BRANCH   2   7
ATOM      4  C   LIG    1       24.848  42.301 182.203  0.00  0.00    +0.041 A 
ATOM      5  C   LIG    1       23.631  42.925 182.560  0.00  0.00    -0.008 A 
ATOM      6  C   LIG    1       22.372  42.978 181.714  0.00  0.00    +0.047 C 
ATOM      7  C   LIG    1       23.779  43.476 183.811  0.00  0.00    +0.128 A 
ATOM      8  N   LIG    1       25.060  43.198 184.212  0.00  0.00    -0.352 N 
ATOM      9  H   LIG    1       25.454  43.483 185.129  0.00  0.00    +0.166 HD
ATOM     10  C   LIG    1       25.720  42.496 183.267  0.00  0.00    +0.024 A 
ATOM     11  C   LIG    1       27.156  42.086 183.530  0.00  0.00    +0.064 C 
BRANCH   4  13
ATOM     12  C   LIG    1       24.982  40.090 180.826  0.00  0.00    +0.091 C 
ATOM     13  C   LIG    1       25.112  41.588 180.949  0.00  0.00    +0.162 C 
ATOM     14  O   LIG    1       25.450  42.164 179.936  0.00  0.00    -0.292 OA
ENDBRANCH   4  13
ENDBRANCH   2   7
ENDBRANCH   1   2
BRANCH   1  15
ATOM     15  C   LIG    1       23.010  42.939 186.798  0.00  0.00    +0.328 C 
BRANCH  15  16
ATOM     16  C   LIG    1       24.199  42.802 187.750  0.00  0.00    +0.256 C 
ATOM     17  N   LIG    1       24.188  43.226 189.042  0.00  0.00    -0.266 N 
ATOM     18  H   LIG    1       25.012  42.921 189.575  0.00  0.00    +0.156 HD
ATOM     19  O   LIG    1       25.255  42.314 187.400  0.00  0.00    -0.272 OA
BRANCH  17  20
ATOM     20  C   LIG    1       23.214  43.972 189.725  0.00  0.00    +0.144 A 
ATOM     21  C   LIG    1       23.111  43.862 191.128  0.00  0.00    +0.082 A 
ATOM     22 CL   LIG    1       24.154  42.807 192.028  0.00  0.00    -0.080 Cl
ATOM     23  C   LIG    1       22.159  44.619 191.791  0.00  0.00    +0.045 A 
ATOM     24  C   LIG    1       21.351  45.463 191.034  0.00  0.00    +0.063 A 
ATOM     25 CL   LIG    1       20.152  46.419 191.844  0.00  0.00    -0.082 Cl
ATOM     26  C   LIG    1       21.519  45.531 189.640  0.00  0.00    +0.059 A 
ATOM     27  C   LIG    1       20.666  46.441 188.783  0.00  0.00    +0.067 C 
ATOM     28  N   LIG    1       22.442  44.793 189.011  0.00  0.00    -0.234 NA
ENDBRANCH  17  20
ENDBRANCH  15  16
ENDBRANCH   1  15
TORSDOF 6
