REMARK VINA RESULT:      -7.1      7.645      9.985
REMARK  Name = ZINC000022624335
REMARK                            x       y       z     vdW  Elec       q    Type
REMARK                         _______ _______ _______ _____ _____    ______ ____
ROOT
ATOM      1  C   LIG    1       35.188  16.494 193.437  0.00  0.00    +0.121 A 
ATOM      2  N   LIG    1       35.156  17.146 194.607  0.00  0.00    -0.238 NA
ATOM      3  C   LIG    1       34.104  16.977 195.409  0.00  0.00    +0.136 A 
ATOM      4  C   LIG    1       33.039  16.137 195.069  0.00  0.00    +0.052 A 
ATOM      5  C   LIG    1       33.065  15.442 193.860  0.00  0.00    +0.028 A 
ATOM      6  C   LIG    1       34.161  15.626 193.038  0.00  0.00    +0.045 A 
ENDROOT
BRANCH   1  11
ATOM      7  C   LIG    1       38.208  18.346 189.490  0.00  0.00    +0.221 C 
ATOM      8  N   LIG    1       38.058  17.501 190.544  0.00  0.00    -0.298 N 
ATOM      9  C   LIG    1       37.511  16.121 190.556  0.00  0.00    +0.126 C 
ATOM     10  C   LIG    1       36.113  16.187 191.219  0.00  0.00    +0.125 C 
ATOM     11  N   LIG    1       36.291  16.702 192.601  0.00  0.00    -0.312 N 
ATOM     12  C   LIG    1       36.880  18.078 192.603  0.00  0.00    +0.125 C 
ATOM     13  C   LIG    1       38.272  17.993 191.937  0.00  0.00    +0.126 C 
ATOM     14  O   LIG    1       38.568  19.501 189.711  0.00  0.00    -0.275 OA
BRANCH   7  15
ATOM     15  C   LIG    1       37.946  17.929 187.995  0.00  0.00    +0.041 C 
ATOM     16  C   LIG    1       38.327  19.086 187.030  0.00  0.00    +0.020 C 
ATOM     17  C   LIG    1       38.876  16.780 187.531  0.00  0.00    +0.020 C 
BRANCH  15  19
ATOM     18  C   LIG    1       35.427  18.590 188.200  0.00  0.00    +0.005 C 
ATOM     19  C   LIG    1       36.462  17.577 187.682  0.00  0.00    +0.012 C 
ENDBRANCH  15  19
ENDBRANCH   7  15
ENDBRANCH   1  11
BRANCH   4  20
ATOM     20  N   LIG    1       31.961  15.979 195.988  0.00  0.00    -0.280 N 
ATOM     21  H   LIG    1       32.074  15.290 196.741  0.00  0.00    +0.155 HD
ATOM     22  C   LIG    1       30.803  16.727 196.029  0.00  0.00    +0.248 C 
ATOM     23  O   LIG    1       30.711  17.708 195.302  0.00  0.00    -0.270 OA
BRANCH  22  24
ATOM     24  C   LIG    1       29.756  16.334 196.977  0.00  0.00    +0.037 A 
ATOM     25  C   LIG    1       28.570  15.708 196.543  0.00  0.00    +0.016 A 
ATOM     26  C   LIG    1       27.594  15.332 197.461  0.00  0.00    +0.039 A 
ATOM     27  C   LIG    1       27.808  15.589 198.809  0.00  0.00    +0.123 A 
ATOM     28  F   LIG    1       26.857  15.219 199.704  0.00  0.00    -0.205 F 
ATOM     29  C   LIG    1       28.957  16.216 199.270  0.00  0.00    +0.039 A 
ATOM     30  C   LIG    1       29.929  16.590 198.349  0.00  0.00    +0.016 A 
ENDBRANCH  22  24
ENDBRANCH   4  20
TORSDOF 5
