REMARK VINA RESULT:      -7.0     29.102     33.125
REMARK  Name = ZINC000006083858
REMARK                            x       y       z     vdW  Elec       q    Type
REMARK                         _______ _______ _______ _____ _____    ______ ____
ROOT
ATOM      1  C   LIG    1       28.331  23.761 208.294  0.00  0.00    +0.257 A 
ATOM      2  C   LIG    1       28.779  23.384 206.961  0.00  0.00    +0.185 A 
ATOM      3  N   LIG    1       28.882  22.133 206.587  0.00  0.00    -0.225 NA
ATOM      4  C   LIG    1       28.522  21.193 207.525  0.00  0.00    +0.092 A 
ATOM      5  C   LIG    1       28.599  19.825 207.196  0.00  0.00    +0.030 A 
ATOM      6  C   LIG    1       28.245  18.858 208.115  0.00  0.00    +0.002 A 
ATOM      7  C   LIG    1       27.799  19.227 209.396  0.00  0.00    +0.002 A 
ATOM      8  C   LIG    1       27.714  20.560 209.743  0.00  0.00    +0.030 A 
ATOM      9  C   LIG    1       28.076  21.565 208.825  0.00  0.00    +0.093 A 
ATOM     10  N   LIG    1       27.995  22.890 209.209  0.00  0.00    -0.208 NA
ENDROOT
BRANCH   2  11
ATOM     11  N   LIG    1       29.167  24.360 206.032  0.00  0.00    -0.311 N 
ATOM     12  C   LIG    1       30.637  24.411 205.877  0.00  0.00    +0.131 C 
BRANCH  11  13
ATOM     13  C   LIG    1       28.335  24.508 204.797  0.00  0.00    +0.075 C 
ATOM     14  C   LIG    1       28.980  25.500 203.786  0.00  0.00    +0.022 C 
ATOM     15  C   LIG    1       29.084  26.915 204.396  0.00  0.00    +0.002 C 
ATOM     16  C   LIG    1       27.705  27.446 204.799  0.00  0.00    +0.000 C 
ATOM     17  C   LIG    1       27.042  26.472 205.778  0.00  0.00    +0.002 C 
ATOM     18  C   LIG    1       26.926  25.065 205.159  0.00  0.00    +0.022 C 
ENDBRANCH  11  13
ENDBRANCH   2  11
BRANCH   1  19
ATOM     19  O   LIG    1       28.267  25.098 208.628  0.00  0.00    -0.465 OA
BRANCH  19  20
ATOM     20  C   LIG    1       29.259  25.805 209.450  0.00  0.00    +0.326 C 
BRANCH  20  23
ATOM     21  N   LIG    1       28.072  25.254 211.502  0.00  0.00    -0.310 N 
ATOM     22  H   LIG    1       28.231  24.307 211.188  0.00  0.00    +0.149 HD
ATOM     23  C   LIG    1       28.561  26.229 210.734  0.00  0.00    +0.251 C 
ATOM     24  O   LIG    1       28.470  27.406 211.065  0.00  0.00    -0.272 OA
BRANCH  21  25
ATOM     25  C   LIG    1       27.413  25.430 212.781  0.00  0.00    +0.073 C 
ATOM     26  C   LIG    1       28.237  24.686 213.832  0.00  0.00    +0.028 C 
BRANCH  25  28
ATOM     27  C   LIG    1       25.292  24.958 214.100  0.00  0.00    +0.009 C 
ATOM     28  C   LIG    1       25.942  24.953 212.706  0.00  0.00    +0.003 C 
ATOM     29  C   LIG    1       25.051  25.764 211.745  0.00  0.00    +0.009 C 
ENDBRANCH  25  28
ENDBRANCH  21  25
ENDBRANCH  20  23
ENDBRANCH  19  20
ENDBRANCH   1  19
TORSDOF 7
