MODEL 1
REMARK VINA RESULT:      -7.9      0.000      0.000
REMARK  Name = ZINC000006083858
REMARK                            x       y       z     vdW  Elec       q    Type
REMARK                         _______ _______ _______ _____ _____    ______ ____
ROOT
ATOM      1  C   LIG    1       22.968  44.831 184.657  0.00  0.00    +0.257 A 
ATOM      2  C   LIG    1       23.937  44.621 183.590  0.00  0.00    +0.185 A 
ATOM      3  N   LIG    1       24.843  43.676 183.646  0.00  0.00    -0.225 NA
ATOM      4  C   LIG    1       24.811  42.879 184.766  0.00  0.00    +0.092 A 
ATOM      5  C   LIG    1       25.749  41.835 184.895  0.00  0.00    +0.030 A 
ATOM      6  C   LIG    1       25.744  41.016 186.008  0.00  0.00    +0.002 A 
ATOM      7  C   LIG    1       24.797  41.213 187.028  0.00  0.00    +0.002 A 
ATOM      8  C   LIG    1       23.867  42.228 186.924  0.00  0.00    +0.030 A 
ATOM      9  C   LIG    1       23.857  43.080 185.803  0.00  0.00    +0.093 A 
ATOM     10  N   LIG    1       22.923  44.097 185.737  0.00  0.00    -0.208 NA
ENDROOT
BRANCH   2  11
ATOM     11  N   LIG    1       23.966  45.466 182.471  0.00  0.00    -0.311 N 
ATOM     12  C   LIG    1       24.983  46.530 182.619  0.00  0.00    +0.131 C 
BRANCH  11  13
ATOM     13  C   LIG    1       23.815  44.834 181.123  0.00  0.00    +0.075 C 
ATOM     14  C   LIG    1       23.813  45.898 179.987  0.00  0.00    +0.022 C 
ATOM     15  C   LIG    1       22.614  46.858 180.139  0.00  0.00    +0.002 C 
ATOM     16  C   LIG    1       21.285  46.094 180.105  0.00  0.00    +0.000 C 
ATOM     17  C   LIG    1       21.276  45.025 181.203  0.00  0.00    +0.002 C 
ATOM     18  C   LIG    1       22.467  44.059 181.039  0.00  0.00    +0.022 C 
ENDBRANCH  11  13
ENDBRANCH   2  11
BRANCH   1  19
ATOM     19  O   LIG    1       22.056  45.860 184.544  0.00  0.00    -0.465 OA
BRANCH  19  20
ATOM     20  C   LIG    1       21.892  46.947 185.519  0.00  0.00    +0.326 C 
BRANCH  20  23
ATOM     21  N   LIG    1       20.297  48.758 185.830  0.00  0.00    -0.310 N 
ATOM     22  H   LIG    1       21.065  49.175 186.338  0.00  0.00    +0.149 HD
ATOM     23  C   LIG    1       20.523  47.564 185.280  0.00  0.00    +0.251 C 
ATOM     24  O   LIG    1       19.671  47.007 184.596  0.00  0.00    -0.272 OA
BRANCH  21  25
ATOM     25  C   LIG    1       19.085  49.540 185.694  0.00  0.00    +0.073 C 
ATOM     26  C   LIG    1       19.493  50.961 185.302  0.00  0.00    +0.028 C 
BRANCH  25  28
ATOM     27  C   LIG    1       19.148  49.194 188.211  0.00  0.00    +0.009 C 
ATOM     28  C   LIG    1       18.249  49.481 186.996  0.00  0.00    +0.003 C 
ATOM     29  C   LIG    1       17.420  50.748 187.287  0.00  0.00    +0.009 C 
ENDBRANCH  25  28
ENDBRANCH  21  25
ENDBRANCH  20  23
ENDBRANCH  19  20
ENDBRANCH   1  19
TORSDOF 7
ENDMDL
MODEL 2
REMARK VINA RESULT:      -7.8      1.158      1.768
REMARK  Name = ZINC000006083858
REMARK                            x       y       z     vdW  Elec       q    Type
REMARK                         _______ _______ _______ _____ _____    ______ ____
ROOT
ATOM      1  C   LIG    1       22.964  44.799 184.618  0.00  0.00    +0.257 A 
ATOM      2  C   LIG    1       23.952  44.594 183.568  0.00  0.00    +0.185 A 
ATOM      3  N   LIG    1       24.865  43.657 183.641  0.00  0.00    -0.225 NA
ATOM      4  C   LIG    1       24.822  42.863 184.763  0.00  0.00    +0.092 A 
ATOM      5  C   LIG    1       25.767  41.828 184.911  0.00  0.00    +0.030 A 
ATOM      6  C   LIG    1       25.751  41.013 186.026  0.00  0.00    +0.002 A 
ATOM      7  C   LIG    1       24.786  41.205 187.030  0.00  0.00    +0.002 A 
ATOM      8  C   LIG    1       23.849  42.211 186.908  0.00  0.00    +0.030 A 
ATOM      9  C   LIG    1       23.850  43.059 185.784  0.00  0.00    +0.093 A 
ATOM     10  N   LIG    1       22.908  44.068 185.700  0.00  0.00    -0.208 NA
ENDROOT
BRANCH   2  11
ATOM     11  N   LIG    1       23.992  45.436 182.447  0.00  0.00    -0.311 N 
ATOM     12  C   LIG    1       25.009  46.499 182.600  0.00  0.00    +0.131 C 
BRANCH  11  13
ATOM     13  C   LIG    1       23.852  44.799 181.099  0.00  0.00    +0.075 C 
ATOM     14  C   LIG    1       23.849  45.861 179.961  0.00  0.00    +0.022 C 
ATOM     15  C   LIG    1       22.643  46.814 180.104  0.00  0.00    +0.002 C 
ATOM     16  C   LIG    1       21.320  46.042 180.065  0.00  0.00    +0.000 C 
ATOM     17  C   LIG    1       21.312  44.975 181.165  0.00  0.00    +0.002 C 
ATOM     18  C   LIG    1       22.509  44.016 181.009  0.00  0.00    +0.022 C 
ENDBRANCH  11  13
ENDBRANCH   2  11
BRANCH   1  19
ATOM     19  O   LIG    1       22.046  45.820 184.487  0.00  0.00    -0.465 OA
BRANCH  19  20
ATOM     20  C   LIG    1       21.939  46.974 185.389  0.00  0.00    +0.326 C 
BRANCH  20  23
ATOM     21  N   LIG    1       21.751  49.389 185.154  0.00  0.00    -0.310 N 
ATOM     22  H   LIG    1       21.742  49.357 186.165  0.00  0.00    +0.149 HD
ATOM     23  C   LIG    1       21.875  48.221 184.521  0.00  0.00    +0.251 C 
ATOM     24  O   LIG    1       21.956  48.166 183.299  0.00  0.00    -0.272 OA
BRANCH  21  25
ATOM     25  C   LIG    1       21.716  50.695 184.527  0.00  0.00    +0.073 C 
ATOM     26  C   LIG    1       22.970  51.452 184.964  0.00  0.00    +0.028 C 
BRANCH  25  28
ATOM     27  C   LIG    1       19.989  52.393 183.753  0.00  0.00    +0.009 C 
ATOM     28  C   LIG    1       20.401  51.433 184.883  0.00  0.00    +0.003 C 
ATOM     29  C   LIG    1       19.209  50.508 185.200  0.00  0.00    +0.009 C 
ENDBRANCH  25  28
ENDBRANCH  21  25
ENDBRANCH  20  23
ENDBRANCH  19  20
ENDBRANCH   1  19
TORSDOF 7
ENDMDL
MODEL 3
REMARK VINA RESULT:      -7.5      2.306      6.777
REMARK  Name = ZINC000006083858
REMARK                            x       y       z     vdW  Elec       q    Type
REMARK                         _______ _______ _______ _____ _____    ______ ____
ROOT
ATOM      1  C   LIG    1       21.866  46.878 185.939  0.00  0.00    +0.257 A 
ATOM      2  C   LIG    1       20.684  47.701 186.154  0.00  0.00    +0.185 A 
ATOM      3  N   LIG    1       19.999  47.661 187.270  0.00  0.00    -0.225 NA
ATOM      4  C   LIG    1       20.476  46.807 188.237  0.00  0.00    +0.092 A 
ATOM      5  C   LIG    1       19.798  46.714 189.470  0.00  0.00    +0.030 A 
ATOM      6  C   LIG    1       20.251  45.866 190.461  0.00  0.00    +0.002 A 
ATOM      7  C   LIG    1       21.401  45.084 190.254  0.00  0.00    +0.002 A 
ATOM      8  C   LIG    1       22.083  45.159 189.057  0.00  0.00    +0.030 A 
ATOM      9  C   LIG    1       21.637  46.010 188.028  0.00  0.00    +0.093 A 
ATOM     10  N   LIG    1       22.333  46.049 186.834  0.00  0.00    -0.208 NA
ENDROOT
BRANCH   2  11
ATOM     11  N   LIG    1       20.202  48.542 185.141  0.00  0.00    -0.311 N 
ATOM     12  C   LIG    1       18.968  48.005 184.528  0.00  0.00    +0.131 C 
BRANCH  11  13
ATOM     13  C   LIG    1       20.273  50.019 185.377  0.00  0.00    +0.075 C 
ATOM     14  C   LIG    1       19.325  50.799 184.420  0.00  0.00    +0.022 C 
ATOM     15  C   LIG    1       19.738  50.587 182.948  0.00  0.00    +0.002 C 
ATOM     16  C   LIG    1       21.178  51.050 182.704  0.00  0.00    +0.000 C 
ATOM     17  C   LIG    1       22.126  50.310 183.653  0.00  0.00    +0.002 C 
ATOM     18  C   LIG    1       21.719  50.536 185.123  0.00  0.00    +0.022 C 
ENDBRANCH  11  13
ENDBRANCH   2  11
BRANCH   1  19
ATOM     19  O   LIG    1       22.526  46.953 184.730  0.00  0.00    -0.465 OA
BRANCH  19  20
ATOM     20  C   LIG    1       22.524  45.899 183.705  0.00  0.00    +0.326 C 
BRANCH  20  23
ATOM     21  N   LIG    1       23.773  43.981 184.531  0.00  0.00    -0.310 N 
ATOM     22  H   LIG    1       22.863  43.699 184.873  0.00  0.00    +0.149 HD
ATOM     23  C   LIG    1       23.825  45.127 183.850  0.00  0.00    +0.251 C 
ATOM     24  O   LIG    1       24.873  45.519 183.346  0.00  0.00    -0.272 OA
BRANCH  21  25
ATOM     25  C   LIG    1       24.879  43.071 184.750  0.00  0.00    +0.073 C 
ATOM     26  C   LIG    1       25.130  42.325 183.439  0.00  0.00    +0.028 C 
BRANCH  25  28
ATOM     27  C   LIG    1       25.775  42.074 186.910  0.00  0.00    +0.009 C 
ATOM     28  C   LIG    1       24.580  42.129 185.942  0.00  0.00    +0.003 C 
ATOM     29  C   LIG    1       23.314  42.489 186.746  0.00  0.00    +0.009 C 
ENDBRANCH  25  28
ENDBRANCH  21  25
ENDBRANCH  20  23
ENDBRANCH  19  20
ENDBRANCH   1  19
TORSDOF 7
ENDMDL
MODEL 4
REMARK VINA RESULT:      -7.0     29.102     33.125
REMARK  Name = ZINC000006083858
REMARK                            x       y       z     vdW  Elec       q    Type
REMARK                         _______ _______ _______ _____ _____    ______ ____
ROOT
ATOM      1  C   LIG    1       28.331  23.761 208.294  0.00  0.00    +0.257 A 
ATOM      2  C   LIG    1       28.779  23.384 206.961  0.00  0.00    +0.185 A 
ATOM      3  N   LIG    1       28.882  22.133 206.587  0.00  0.00    -0.225 NA
ATOM      4  C   LIG    1       28.522  21.193 207.525  0.00  0.00    +0.092 A 
ATOM      5  C   LIG    1       28.599  19.825 207.196  0.00  0.00    +0.030 A 
ATOM      6  C   LIG    1       28.245  18.858 208.115  0.00  0.00    +0.002 A 
ATOM      7  C   LIG    1       27.799  19.227 209.396  0.00  0.00    +0.002 A 
ATOM      8  C   LIG    1       27.714  20.560 209.743  0.00  0.00    +0.030 A 
ATOM      9  C   LIG    1       28.076  21.565 208.825  0.00  0.00    +0.093 A 
ATOM     10  N   LIG    1       27.995  22.890 209.209  0.00  0.00    -0.208 NA
ENDROOT
BRANCH   2  11
ATOM     11  N   LIG    1       29.167  24.360 206.032  0.00  0.00    -0.311 N 
ATOM     12  C   LIG    1       30.637  24.411 205.877  0.00  0.00    +0.131 C 
BRANCH  11  13
ATOM     13  C   LIG    1       28.335  24.508 204.797  0.00  0.00    +0.075 C 
ATOM     14  C   LIG    1       28.980  25.500 203.786  0.00  0.00    +0.022 C 
ATOM     15  C   LIG    1       29.084  26.915 204.396  0.00  0.00    +0.002 C 
ATOM     16  C   LIG    1       27.705  27.446 204.799  0.00  0.00    +0.000 C 
ATOM     17  C   LIG    1       27.042  26.472 205.778  0.00  0.00    +0.002 C 
ATOM     18  C   LIG    1       26.926  25.065 205.159  0.00  0.00    +0.022 C 
ENDBRANCH  11  13
ENDBRANCH   2  11
BRANCH   1  19
ATOM     19  O   LIG    1       28.267  25.098 208.628  0.00  0.00    -0.465 OA
BRANCH  19  20
ATOM     20  C   LIG    1       29.259  25.805 209.450  0.00  0.00    +0.326 C 
BRANCH  20  23
ATOM     21  N   LIG    1       28.072  25.254 211.502  0.00  0.00    -0.310 N 
ATOM     22  H   LIG    1       28.231  24.307 211.188  0.00  0.00    +0.149 HD
ATOM     23  C   LIG    1       28.561  26.229 210.734  0.00  0.00    +0.251 C 
ATOM     24  O   LIG    1       28.470  27.406 211.065  0.00  0.00    -0.272 OA
BRANCH  21  25
ATOM     25  C   LIG    1       27.413  25.430 212.781  0.00  0.00    +0.073 C 
ATOM     26  C   LIG    1       28.237  24.686 213.832  0.00  0.00    +0.028 C 
BRANCH  25  28
ATOM     27  C   LIG    1       25.292  24.958 214.100  0.00  0.00    +0.009 C 
ATOM     28  C   LIG    1       25.942  24.953 212.706  0.00  0.00    +0.003 C 
ATOM     29  C   LIG    1       25.051  25.764 211.745  0.00  0.00    +0.009 C 
ENDBRANCH  25  28
ENDBRANCH  21  25
ENDBRANCH  20  23
ENDBRANCH  19  20
ENDBRANCH   1  19
TORSDOF 7
ENDMDL
MODEL 5
REMARK VINA RESULT:      -6.8     29.651     32.774
REMARK  Name = ZINC000006083858
REMARK                            x       y       z     vdW  Elec       q    Type
REMARK                         _______ _______ _______ _____ _____    ______ ____
ROOT
ATOM      1  C   LIG    1       28.555  21.707 206.882  0.00  0.00    +0.257 A 
ATOM      2  C   LIG    1       29.286  22.213 205.729  0.00  0.00    +0.185 A 
ATOM      3  N   LIG    1       29.978  21.427 204.942  0.00  0.00    -0.225 NA
ATOM      4  C   LIG    1       29.957  20.089 205.258  0.00  0.00    +0.092 A 
ATOM      5  C   LIG    1       30.671  19.178 204.454  0.00  0.00    +0.030 A 
ATOM      6  C   LIG    1       30.670  17.828 204.745  0.00  0.00    +0.002 A 
ATOM      7  C   LIG    1       29.950  17.343 205.851  0.00  0.00    +0.002 A 
ATOM      8  C   LIG    1       29.241  18.214 206.653  0.00  0.00    +0.030 A 
ATOM      9  C   LIG    1       29.234  19.595 206.381  0.00  0.00    +0.093 A 
ATOM     10  N   LIG    1       28.527  20.443 207.214  0.00  0.00    -0.208 NA
ENDROOT
BRANCH   2  11
ATOM     11  N   LIG    1       29.315  23.585 205.444  0.00  0.00    -0.311 N 
ATOM     12  C   LIG    1       30.563  24.216 205.929  0.00  0.00    +0.131 C 
BRANCH  11  13
ATOM     13  C   LIG    1       28.787  24.027 204.115  0.00  0.00    +0.075 C 
ATOM     14  C   LIG    1       29.251  25.471 203.765  0.00  0.00    +0.022 C 
ATOM     15  C   LIG    1       28.707  26.486 204.793  0.00  0.00    +0.002 C 
ATOM     16  C   LIG    1       27.175  26.456 204.843  0.00  0.00    +0.000 C 
ATOM     17  C   LIG    1       26.697  25.036 205.165  0.00  0.00    +0.002 C 
ATOM     18  C   LIG    1       27.230  24.028 204.127  0.00  0.00    +0.022 C 
ENDBRANCH  11  13
ENDBRANCH   2  11
BRANCH   1  19
ATOM     19  O   LIG    1       27.866  22.594 207.683  0.00  0.00    -0.465 OA
BRANCH  19  20
ATOM     20  C   LIG    1       27.228  22.251 208.961  0.00  0.00    +0.326 C 
BRANCH  20  23
ATOM     21  N   LIG    1       26.960  24.470 209.921  0.00  0.00    -0.310 N 
ATOM     22  H   LIG    1       26.214  24.534 209.242  0.00  0.00    +0.149 HD
ATOM     23  C   LIG    1       27.630  23.318 209.967  0.00  0.00    +0.251 C 
ATOM     24  O   LIG    1       28.511  23.127 210.799  0.00  0.00    -0.272 OA
BRANCH  21  25
ATOM     25  C   LIG    1       27.149  25.599 210.811  0.00  0.00    +0.073 C 
ATOM     26  C   LIG    1       25.841  25.812 211.572  0.00  0.00    +0.028 C 
BRANCH  25  28
ATOM     27  C   LIG    1       29.023  27.274 210.430  0.00  0.00    +0.009 C 
ATOM     28  C   LIG    1       27.604  26.848 210.016  0.00  0.00    +0.003 C 
ATOM     29  C   LIG    1       27.569  26.683 208.483  0.00  0.00    +0.009 C 
ENDBRANCH  25  28
ENDBRANCH  21  25
ENDBRANCH  20  23
ENDBRANCH  19  20
ENDBRANCH   1  19
TORSDOF 7
ENDMDL
MODEL 6
REMARK VINA RESULT:      -6.7     29.428     32.698
REMARK  Name = ZINC000006083858
REMARK                            x       y       z     vdW  Elec       q    Type
REMARK                         _______ _______ _______ _____ _____    ______ ____
ROOT
ATOM      1  C   LIG    1       29.953  18.974 198.256  0.00  0.00    +0.257 A 
ATOM      2  C   LIG    1       28.812  18.070 198.289  0.00  0.00    +0.185 A 
ATOM      3  N   LIG    1       27.647  18.434 198.765  0.00  0.00    -0.225 NA
ATOM      4  C   LIG    1       27.560  19.730 199.216  0.00  0.00    +0.092 A 
ATOM      5  C   LIG    1       26.337  20.200 199.736  0.00  0.00    +0.030 A 
ATOM      6  C   LIG    1       26.217  21.495 200.197  0.00  0.00    +0.002 A 
ATOM      7  C   LIG    1       27.318  22.368 200.150  0.00  0.00    +0.002 A 
ATOM      8  C   LIG    1       28.526  21.934 199.644  0.00  0.00    +0.030 A 
ATOM      9  C   LIG    1       28.675  20.614 199.175  0.00  0.00    +0.093 A 
ATOM     10  N   LIG    1       29.903  20.205 198.689  0.00  0.00    -0.208 NA
ENDROOT
BRANCH   2  11
ATOM     11  N   LIG    1       28.933  16.744 197.849  0.00  0.00    -0.311 N 
ATOM     12  C   LIG    1       29.108  15.808 198.981  0.00  0.00    +0.131 C 
BRANCH  11  13
ATOM     13  C   LIG    1       28.055  16.307 196.718  0.00  0.00    +0.075 C 
ATOM     14  C   LIG    1       28.226  14.791 196.412  0.00  0.00    +0.022 C 
ATOM     15  C   LIG    1       29.672  14.481 195.967  0.00  0.00    +0.002 C 
ATOM     16  C   LIG    1       30.050  15.285 194.718  0.00  0.00    +0.000 C 
ATOM     17  C   LIG    1       29.867  16.781 194.991  0.00  0.00    +0.002 C 
ATOM     18  C   LIG    1       28.419  17.088 195.421  0.00  0.00    +0.022 C 
ENDBRANCH  11  13
ENDBRANCH   2  11
BRANCH   1  19
ATOM     19  O   LIG    1       31.157  18.517 197.762  0.00  0.00    -0.465 OA
BRANCH  19  20
ATOM     20  C   LIG    1       32.178  17.815 198.553  0.00  0.00    +0.326 C 
BRANCH  20  23
ATOM     21  N   LIG    1       33.893  17.191 196.944  0.00  0.00    -0.310 N 
ATOM     22  H   LIG    1       34.204  18.140 197.101  0.00  0.00    +0.149 HD
ATOM     23  C   LIG    1       32.829  16.788 197.640  0.00  0.00    +0.251 C 
ATOM     24  O   LIG    1       32.416  15.636 197.561  0.00  0.00    -0.272 OA
BRANCH  21  25
ATOM     25  C   LIG    1       34.687  16.368 196.054  0.00  0.00    +0.073 C 
ATOM     26  C   LIG    1       36.155  16.561 196.432  0.00  0.00    +0.028 C 
BRANCH  25  28
ATOM     27  C   LIG    1       35.674  17.094 193.827  0.00  0.00    +0.009 C 
ATOM     28  C   LIG    1       34.384  16.717 194.576  0.00  0.00    +0.003 C 
ATOM     29  C   LIG    1       33.665  15.605 193.786  0.00  0.00    +0.009 C 
ENDBRANCH  25  28
ENDBRANCH  21  25
ENDBRANCH  20  23
ENDBRANCH  19  20
ENDBRANCH   1  19
TORSDOF 7
ENDMDL
MODEL 7
REMARK VINA RESULT:      -6.7     24.487     27.525
REMARK  Name = ZINC000006083858
REMARK                            x       y       z     vdW  Elec       q    Type
REMARK                         _______ _______ _______ _____ _____    ______ ____
ROOT
ATOM      1  C   LIG    1       18.906  39.413 209.602  0.00  0.00    +0.257 A 
ATOM      2  C   LIG    1       18.927  38.896 210.963  0.00  0.00    +0.185 A 
ATOM      3  N   LIG    1       18.303  37.796 211.302  0.00  0.00    -0.225 NA
ATOM      4  C   LIG    1       17.640  37.144 210.288  0.00  0.00    +0.092 A 
ATOM      5  C   LIG    1       16.950  35.948 210.571  0.00  0.00    +0.030 A 
ATOM      6  C   LIG    1       16.275  35.270 209.576  0.00  0.00    +0.002 A 
ATOM      7  C   LIG    1       16.270  35.766 208.260  0.00  0.00    +0.002 A 
ATOM      8  C   LIG    1       16.939  36.933 207.956  0.00  0.00    +0.030 A 
ATOM      9  C   LIG    1       17.628  37.646 208.956  0.00  0.00    +0.093 A 
ATOM     10  N   LIG    1       18.275  38.822 208.622  0.00  0.00    -0.208 NA
ENDROOT
BRANCH   2  11
ATOM     11  N   LIG    1       19.587  39.594 211.985  0.00  0.00    -0.311 N 
ATOM     12  C   LIG    1       18.714  40.622 212.594  0.00  0.00    +0.131 C 
BRANCH  11  13
ATOM     13  C   LIG    1       20.473  38.807 212.899  0.00  0.00    +0.075 C 
ATOM     14  C   LIG    1       21.197  39.725 213.927  0.00  0.00    +0.022 C 
ATOM     15  C   LIG    1       22.121  40.731 213.208  0.00  0.00    +0.002 C 
ATOM     16  C   LIG    1       23.174  40.007 212.361  0.00  0.00    +0.000 C 
ATOM     17  C   LIG    1       22.482  39.080 211.357  0.00  0.00    +0.002 C 
ATOM     18  C   LIG    1       21.572  38.068 212.081  0.00  0.00    +0.022 C 
ENDBRANCH  11  13
ENDBRANCH   2  11
BRANCH   1  19
ATOM     19  O   LIG    1       19.567  40.590 209.320  0.00  0.00    -0.465 OA
BRANCH  19  20
ATOM     20  C   LIG    1       20.898  40.680 208.704  0.00  0.00    +0.326 C 
BRANCH  20  23
ATOM     21  N   LIG    1       22.776  42.225 208.801  0.00  0.00    -0.310 N 
ATOM     22  H   LIG    1       23.080  41.703 207.990  0.00  0.00    +0.149 HD
ATOM     23  C   LIG    1       21.610  41.863 209.340  0.00  0.00    +0.251 C 
ATOM     24  O   LIG    1       21.131  42.476 210.288  0.00  0.00    -0.272 OA
BRANCH  21  25
ATOM     25  C   LIG    1       23.595  43.344 209.219  0.00  0.00    +0.073 C 
ATOM     26  C   LIG    1       24.089  44.053 207.958  0.00  0.00    +0.028 C 
BRANCH  25  28
ATOM     27  C   LIG    1       26.109  43.308 209.592  0.00  0.00    +0.009 C 
ATOM     28  C   LIG    1       24.743  42.864 210.141  0.00  0.00    +0.003 C 
ATOM     29  C   LIG    1       24.628  43.329 211.607  0.00  0.00    +0.009 C 
ENDBRANCH  25  28
ENDBRANCH  21  25
ENDBRANCH  20  23
ENDBRANCH  19  20
ENDBRANCH   1  19
TORSDOF 7
ENDMDL
MODEL 8
REMARK VINA RESULT:      -6.7     28.466     31.301
REMARK  Name = ZINC000006083858
REMARK                            x       y       z     vdW  Elec       q    Type
REMARK                         _______ _______ _______ _____ _____    ______ ____
ROOT
ATOM      1  C   LIG    1       36.672  18.601 189.141  0.00  0.00    +0.257 A 
ATOM      2  C   LIG    1       37.354  19.856 188.859  0.00  0.00    +0.185 A 
ATOM      3  N   LIG    1       36.923  20.696 187.951  0.00  0.00    -0.225 NA
ATOM      4  C   LIG    1       35.773  20.330 187.292  0.00  0.00    +0.092 A 
ATOM      5  C   LIG    1       35.241  21.185 186.305  0.00  0.00    +0.030 A 
ATOM      6  C   LIG    1       34.089  20.847 185.625  0.00  0.00    +0.002 A 
ATOM      7  C   LIG    1       33.426  19.640 185.911  0.00  0.00    +0.002 A 
ATOM      8  C   LIG    1       33.924  18.787 186.873  0.00  0.00    +0.030 A 
ATOM      9  C   LIG    1       35.103  19.107 187.575  0.00  0.00    +0.093 A 
ATOM     10  N   LIG    1       35.586  18.221 188.521  0.00  0.00    -0.208 NA
ENDROOT
BRANCH   2  11
ATOM     11  N   LIG    1       38.540  20.193 189.526  0.00  0.00    -0.311 N 
ATOM     12  C   LIG    1       39.734  19.814 188.738  0.00  0.00    +0.131 C 
BRANCH  11  13
ATOM     13  C   LIG    1       38.577  21.500 190.254  0.00  0.00    +0.075 C 
ATOM     14  C   LIG    1       39.928  21.704 190.999  0.00  0.00    +0.022 C 
ATOM     15  C   LIG    1       40.130  20.616 192.076  0.00  0.00    +0.002 C 
ATOM     16  C   LIG    1       38.991  20.634 193.101  0.00  0.00    +0.000 C 
ATOM     17  C   LIG    1       37.649  20.457 192.385  0.00  0.00    +0.002 C 
ATOM     18  C   LIG    1       37.444  21.554 191.321  0.00  0.00    +0.022 C 
ENDBRANCH  11  13
ENDBRANCH   2  11
BRANCH   1  19
ATOM     19  O   LIG    1       37.194  17.752 190.095  0.00  0.00    -0.465 OA
BRANCH  19  20
ATOM     20  C   LIG    1       36.441  16.690 190.777  0.00  0.00    +0.326 C 
BRANCH  20  23
ATOM     21  N   LIG    1       35.497  16.994 192.999  0.00  0.00    -0.310 N 
ATOM     22  H   LIG    1       34.623  16.879 192.503  0.00  0.00    +0.149 HD
ATOM     23  C   LIG    1       36.612  16.906 192.272  0.00  0.00    +0.251 C 
ATOM     24  O   LIG    1       37.719  16.972 192.796  0.00  0.00    -0.272 OA
BRANCH  21  25
ATOM     25  C   LIG    1       35.431  17.153 194.438  0.00  0.00    +0.073 C 
ATOM     26  C   LIG    1       34.144  16.482 194.918  0.00  0.00    +0.028 C 
BRANCH  25  28
ATOM     27  C   LIG    1       34.259  19.099 195.579  0.00  0.00    +0.009 C 
ATOM     28  C   LIG    1       35.522  18.650 194.824  0.00  0.00    +0.003 C 
ATOM     29  C   LIG    1       36.757  19.022 195.669  0.00  0.00    +0.009 C 
ENDBRANCH  25  28
ENDBRANCH  21  25
ENDBRANCH  20  23
ENDBRANCH  19  20
ENDBRANCH   1  19
TORSDOF 7
ENDMDL
MODEL 9
REMARK VINA RESULT:      -6.6     24.618     27.854
REMARK  Name = ZINC000006083858
REMARK                            x       y       z     vdW  Elec       q    Type
REMARK                         _______ _______ _______ _____ _____    ______ ____
ROOT
ATOM      1  C   LIG    1       23.615  42.338 211.001  0.00  0.00    +0.257 A 
ATOM      2  C   LIG    1       22.294  42.804 210.604  0.00  0.00    +0.185 A 
ATOM      3  N   LIG    1       22.126  43.743 209.706  0.00  0.00    -0.225 NA
ATOM      4  C   LIG    1       23.275  44.250 209.144  0.00  0.00    +0.092 A 
ATOM      5  C   LIG    1       23.176  45.258 208.164  0.00  0.00    +0.030 A 
ATOM      6  C   LIG    1       24.310  45.787 207.581  0.00  0.00    +0.002 A 
ATOM      7  C   LIG    1       25.583  45.324 207.957  0.00  0.00    +0.002 A 
ATOM      8  C   LIG    1       25.706  44.336 208.914  0.00  0.00    +0.030 A 
ATOM      9  C   LIG    1       24.564  43.786 209.528  0.00  0.00    +0.093 A 
ATOM     10  N   LIG    1       24.723  42.810 210.495  0.00  0.00    -0.208 NA
ENDROOT
BRANCH   2  11
ATOM     11  N   LIG    1       21.139  42.291 211.212  0.00  0.00    -0.311 N 
ATOM     12  C   LIG    1       20.749  43.085 212.397  0.00  0.00    +0.131 C 
BRANCH  11  13
ATOM     13  C   LIG    1       20.045  41.801 210.315  0.00  0.00    +0.075 C 
ATOM     14  C   LIG    1       18.874  41.176 211.128  0.00  0.00    +0.022 C 
ATOM     15  C   LIG    1       19.354  39.941 211.920  0.00  0.00    +0.002 C 
ATOM     16  C   LIG    1       19.933  38.874 210.985  0.00  0.00    +0.000 C 
ATOM     17  C   LIG    1       21.074  39.476 210.158  0.00  0.00    +0.002 C 
ATOM     18  C   LIG    1       20.586  40.700 209.357  0.00  0.00    +0.022 C 
ENDBRANCH  11  13
ENDBRANCH   2  11
BRANCH   1  19
ATOM     19  O   LIG    1       23.719  41.362 211.971  0.00  0.00    -0.465 OA
BRANCH  19  20
ATOM     20  C   LIG    1       24.044  39.953 211.712  0.00  0.00    +0.326 C 
BRANCH  20  23
ATOM     21  N   LIG    1       26.151  40.670 212.696  0.00  0.00    -0.310 N 
ATOM     22  H   LIG    1       25.835  41.581 212.392  0.00  0.00    +0.149 HD
ATOM     23  C   LIG    1       25.334  39.644 212.456  0.00  0.00    +0.251 C 
ATOM     24  O   LIG    1       25.605  38.511 212.842  0.00  0.00    -0.272 OA
BRANCH  21  25
ATOM     25  C   LIG    1       27.403  40.607 213.424  0.00  0.00    +0.073 C 
ATOM     26  C   LIG    1       27.132  41.084 214.851  0.00  0.00    +0.028 C 
BRANCH  25  28
ATOM     27  C   LIG    1       27.915  42.145 211.465  0.00  0.00    +0.009 C 
ATOM     28  C   LIG    1       28.495  41.432 212.699  0.00  0.00    +0.003 C 
ATOM     29  C   LIG    1       29.204  42.478 213.583  0.00  0.00    +0.009 C 
ENDBRANCH  25  28
ENDBRANCH  21  25
ENDBRANCH  20  23
ENDBRANCH  19  20
ENDBRANCH   1  19
TORSDOF 7
ENDMDL
