REMARK VINA RESULT:      -8.2     13.043     14.540
REMARK  Name = ZINC000009035748
REMARK                            x       y       z     vdW  Elec       q    Type
REMARK                         _______ _______ _______ _____ _____    ______ ____
ROOT
ATOM      1  C   LIG    1       25.760  39.777 212.873  0.00  0.00    +0.218 C 
ATOM      2  N   LIG    1       24.582  40.331 212.504  0.00  0.00    -0.297 N 
ATOM      3  C   LIG    1       23.515  39.417 212.024  0.00  0.00    +0.143 C 
ATOM      4  C   LIG    1       22.533  40.164 211.124  0.00  0.00    -0.025 A 
ATOM      5  C   LIG    1       21.413  39.477 210.659  0.00  0.00    +0.028 A 
ATOM      6  C   LIG    1       20.488  40.121 209.837  0.00  0.00    +0.034 A 
ATOM      7  C   LIG    1       20.680  41.451 209.460  0.00  0.00    +0.023 A 
ATOM      8  C   LIG    1       21.797  42.135 209.921  0.00  0.00    +0.006 A 
ATOM      9  C   LIG    1       22.723  41.502 210.754  0.00  0.00    -0.041 A 
ATOM     10  C   LIG    1       23.935  42.266 211.243  0.00  0.00    +0.054 C 
ATOM     11  C   LIG    1       24.223  41.759 212.663  0.00  0.00    +0.113 C 
ATOM     12  O   LIG    1       25.909  38.558 212.831  0.00  0.00    -0.275 OA
ENDROOT
BRANCH   6  13
ATOM     13  N   LIG    1       19.380  39.365 209.388  0.00  0.00    -0.283 N 
ATOM     14  H   LIG    1       19.521  38.769 208.562  0.00  0.00    +0.155 HD
ATOM     15  C   LIG    1       18.115  39.327 209.921  0.00  0.00    +0.255 C 
ATOM     16  O   LIG    1       17.828  39.984 210.901  0.00  0.00    -0.272 OA
BRANCH  15  17
ATOM     17  C   LIG    1       17.112  38.397 209.263  0.00  0.00    +0.324 C 
BRANCH  17  18
ATOM     18  O   LIG    1       17.593  37.024 209.452  0.00  0.00    -0.483 OA
BRANCH  18  19
ATOM     19  C   LIG    1       16.977  35.903 208.938  0.00  0.00    +0.121 A 
ATOM     20  C   LIG    1       16.131  35.197 209.790  0.00  0.00    +0.047 A 
ATOM     21  C   LIG    1       15.480  34.059 209.326  0.00  0.00    +0.023 A 
ATOM     22  C   LIG    1       15.679  33.631 208.011  0.00  0.00    +0.041 A 
ATOM     23 CL   LIG    1       14.870  32.213 207.434  0.00  0.00    -0.084 Cl
ATOM     24  C   LIG    1       16.530  34.341 207.159  0.00  0.00    +0.023 A 
ATOM     25  C   LIG    1       17.181  35.481 207.621  0.00  0.00    +0.047 A 
ENDBRANCH  18  19
ENDBRANCH  17  18
ENDBRANCH  15  17
ENDBRANCH   6  13
BRANCH   1  27
ATOM     26  C   LIG    1       27.467  40.151 214.750  0.00  0.00    +0.017 C 
ATOM     27  C   LIG    1       26.928  40.653 213.396  0.00  0.00    +0.069 C 
ATOM     28  C   LIG    1       28.116  40.717 212.417  0.00  0.00    +0.017 C 
ENDBRANCH   1  27
TORSDOF 5
