REMARK VINA RESULT:      -7.4     23.503     26.017
REMARK  Name = ZINC000000538144
REMARK                            x       y       z     vdW  Elec       q    Type
REMARK                         _______ _______ _______ _____ _____    ______ ____
ROOT
ATOM      1  C   LIG    1       16.149  35.607 208.830  0.00  0.00    +0.163 A 
ATOM      2  C   LIG    1       16.555  35.591 210.202  0.00  0.00    +0.162 A 
ATOM      3  C   LIG    1       17.350  36.603 210.715  0.00  0.00    +0.059 A 
ATOM      4  C   LIG    1       17.750  37.659 209.877  0.00  0.00    +0.007 A 
ATOM      5  C   LIG    1       18.525  38.826 210.082  0.00  0.00    -0.018 A 
ATOM      6  C   LIG    1       18.582  39.508 208.906  0.00  0.00    +0.017 A 
ATOM      7  C   LIG    1       19.276  40.808 208.558  0.00  0.00    +0.063 C 
ATOM      8  N   LIG    1       17.871  38.791 207.964  0.00  0.00    -0.358 N 
ATOM      9  H   LIG    1       17.748  39.059 206.975  0.00  0.00    +0.166 HD
ATOM     10  C   LIG    1       17.346  37.654 208.548  0.00  0.00    +0.051 A 
ATOM     11  C   LIG    1       16.548  36.643 207.994  0.00  0.00    +0.075 A 
ENDROOT
BRANCH   1  13
ATOM     12  C   LIG    1       15.820  33.396 207.643  0.00  0.00    +0.277 C 
ATOM     13  O   LIG    1       15.351  34.582 208.323  0.00  0.00    -0.491 OA
ENDBRANCH   1  13
BRANCH   2  14
ATOM     14  O   LIG    1       16.204  34.598 211.120  0.00  0.00    -0.491 OA
ATOM     15  C   LIG    1       14.895  34.307 211.657  0.00  0.00    +0.277 C 
ENDBRANCH   2  14
BRANCH   5  16
ATOM     16  C   LIG    1       19.154  39.230 211.400  0.00  0.00    +0.053 C 
BRANCH  16  17
ATOM     17  C   LIG    1       20.641  38.864 211.268  0.00  0.00    +0.089 C 
BRANCH  17  18
ATOM     18  N   LIG    1       21.365  39.564 212.364  0.00  0.00    -0.299 NA
ATOM     19  C   LIG    1       21.168  41.054 212.381  0.00  0.00    +0.103 C 
ATOM     20  C   LIG    1       21.856  41.731 211.162  0.00  0.00    +0.120 C 
ATOM     21  N   LIG    1       23.297  41.375 211.185  0.00  0.00    -0.327 N 
ATOM     22  C   LIG    1       23.498  39.908 211.102  0.00  0.00    +0.120 C 
ATOM     23  C   LIG    1       22.830  39.267 212.347  0.00  0.00    +0.103 C 
BRANCH  21  24
ATOM     24  C   LIG    1       24.096  42.205 210.367  0.00  0.00    +0.030 A 
ATOM     25  C   LIG    1       25.360  42.658 210.773  0.00  0.00    +0.023 A 
ATOM     26  C   LIG    1       26.109  43.467 209.926  0.00  0.00    +0.002 A 
ATOM     27  C   LIG    1       25.610  43.831 208.678  0.00  0.00    +0.000 A 
ATOM     28  C   LIG    1       24.353  43.385 208.276  0.00  0.00    +0.002 A 
ATOM     29  C   LIG    1       23.596  42.579 209.117  0.00  0.00    +0.023 A 
ENDBRANCH  21  24
ENDBRANCH  17  18
ENDBRANCH  16  17
ENDBRANCH   5  16
TORSDOF 6
