REMARK VINA RESULT:      -6.8     28.453     31.876
REMARK  Name = ZINC000000538627
REMARK                            x       y       z     vdW  Elec       q    Type
REMARK                         _______ _______ _______ _____ _____    ______ ____
ROOT
ATOM      1  C   LIG    1       23.626  45.212 182.327  0.00  0.00    +0.166 C 
ENDROOT
BRANCH   1   2
ATOM      2  C   LIG    1       25.045  44.644 182.104  0.00  0.00    -0.007 A 
ATOM      3  C   LIG    1       25.946  44.355 183.139  0.00  0.00    +0.007 A 
ATOM      4  C   LIG    1       27.213  43.851 182.857  0.00  0.00    +0.000 A 
ATOM      5  C   LIG    1       27.601  43.629 181.541  0.00  0.00    +0.000 A 
ATOM      6  C   LIG    1       26.720  43.911 180.505  0.00  0.00    +0.000 A 
ATOM      7  C   LIG    1       25.453  44.415 180.786  0.00  0.00    +0.007 A 
ENDBRANCH   1   2
BRANCH   1   8
ATOM      8  C   LIG    1       22.620  44.350 181.532  0.00  0.00    -0.007 A 
ATOM      9  C   LIG    1       22.634  42.953 181.625  0.00  0.00    +0.007 A 
ATOM     10  C   LIG    1       21.744  42.181 180.884  0.00  0.00    +0.000 A 
ATOM     11  C   LIG    1       20.826  42.793 180.039  0.00  0.00    +0.000 A 
ATOM     12  C   LIG    1       20.795  44.179 179.940  0.00  0.00    +0.000 A 
ATOM     13  C   LIG    1       21.684  44.951 180.680  0.00  0.00    +0.007 A 
ENDBRANCH   1   8
BRANCH   1  15
ATOM     14  C   LIG    1       24.745  47.477 182.032  0.00  0.00    +0.195 C 
ATOM     15  O   LIG    1       23.613  46.589 181.769  0.00  0.00    -0.363 OA
ENDBRANCH   1  15
BRANCH   1  16
ATOM     16  C   LIG    1       23.216  45.248 183.828  0.00  0.00    +0.325 C 
BRANCH  16  17
ATOM     17  C   LIG    1       22.011  46.161 183.978  0.00  0.00    +0.350 C 
ATOM     18  O   LIG    1       20.856  45.752 183.911  0.00  0.00    -0.247 OA
BRANCH  17  19
ATOM     19  O   LIG    1       22.190  47.504 184.133  0.00  0.00    -0.478 OA
ATOM     20  H   LIG    1       21.972  47.975 183.325  0.00  0.00    +0.295 HD
ENDBRANCH  17  19
ENDBRANCH  16  17
BRANCH  16  21
ATOM     21  O   LIG    1       22.833  43.893 184.287  0.00  0.00    -0.444 OA
BRANCH  21  22
ATOM     22  C   LIG    1       23.272  43.397 185.462  0.00  0.00    +0.319 A 
ATOM     23  N   LIG    1       24.124  42.376 185.446  0.00  0.00    -0.200 NA
ATOM     24  C   LIG    1       24.560  41.911 186.603  0.00  0.00    +0.045 A 
ATOM     25  C   LIG    1       25.529  40.755 186.589  0.00  0.00    +0.066 C 
ATOM     26  C   LIG    1       24.110  42.479 187.785  0.00  0.00    +0.046 A 
ATOM     27  C   LIG    1       23.212  43.535 187.728  0.00  0.00    +0.045 A 
ATOM     28  C   LIG    1       22.692  44.207 188.975  0.00  0.00    +0.066 C 
ATOM     29  N   LIG    1       22.804  43.985 186.555  0.00  0.00    -0.200 NA
ENDBRANCH  21  22
ENDBRANCH  16  21
ENDBRANCH   1  16
TORSDOF 8
