MODEL 1
REMARK VINA RESULT:      -7.7      0.000      0.000
REMARK  Name = ZINC000000622958
REMARK                            x       y       z     vdW  Elec       q    Type
REMARK                         _______ _______ _______ _____ _____    ______ ____
ROOT
ATOM      1  C   LIG    1       26.658  43.119 181.309  0.00  0.00    +0.271 C 
ATOM      2  N   LIG    1       26.163  44.065 182.278  0.00  0.00    -0.157 N 
ATOM      3  C   LIG    1       26.368  45.311 181.915  0.00  0.00    +0.250 C 
ATOM      4  C   LIG    1       25.968  46.538 182.722  0.00  0.00    +0.124 C 
ATOM      5  C   LIG    1       24.788  47.216 181.987  0.00  0.00    +0.012 C 
ATOM      6  C   LIG    1       25.320  48.035 180.795  0.00  0.00    +0.004 C 
ATOM      7  C   LIG    1       25.908  47.225 179.621  0.00  0.00    +0.045 C 
ATOM      8  C   LIG    1       27.259  46.604 180.025  0.00  0.00    +0.236 C 
ATOM      9  N   LIG    1       26.943  45.359 180.740  0.00  0.00    -0.258 N 
ATOM     10  C   LIG    1       27.128  44.019 180.138  0.00  0.00    +0.323 C 
ENDROOT
BRANCH   1  11
ATOM     11  C   LIG    1       25.564  42.138 180.875  0.00  0.00    +0.034 A 
ATOM     12  C   LIG    1       24.542  42.579 180.014  0.00  0.00    +0.060 A 
ATOM     13  C   LIG    1       23.555  41.684 179.635  0.00  0.00    +0.167 A 
ATOM     14  O   LIG    1       22.503  41.933 178.827  0.00  0.00    -0.453 OA
ATOM     15  C   LIG    1       21.747  40.657 178.738  0.00  0.00    +0.466 C 
ATOM     16  O   LIG    1       22.504  39.699 179.578  0.00  0.00    -0.453 OA
ATOM     17  C   LIG    1       23.556  40.385 180.074  0.00  0.00    +0.166 A 
ATOM     18  C   LIG    1       24.548  39.915 180.919  0.00  0.00    +0.050 A 
ATOM     19  C   LIG    1       25.554  40.799 181.319  0.00  0.00    +0.014 A 
ENDBRANCH   1  11
BRANCH   2  20
ATOM     20  C   LIG    1       25.474  43.667 183.454  0.00  0.00    +0.124 A 
ATOM     21  C   LIG    1       24.101  43.889 183.556  0.00  0.00    +0.050 A 
ATOM     22  C   LIG    1       23.432  43.483 184.708  0.00  0.00    +0.024 A 
ATOM     23  C   LIG    1       24.138  42.860 185.742  0.00  0.00    +0.041 A 
ATOM     24 CL   LIG    1       23.303  42.355 187.170  0.00  0.00    -0.084 Cl
ATOM     25  C   LIG    1       25.515  42.643 185.628  0.00  0.00    +0.024 A 
ATOM     26  C   LIG    1       26.189  43.047 184.479  0.00  0.00    +0.050 A 
ENDBRANCH   2  20
BRANCH   1  27
ATOM     27  O   LIG    1       27.772  42.480 181.918  0.00  0.00    -0.347 OA
ATOM     28  H   LIG    1       28.407  42.260 181.220  0.00  0.00    +0.215 HD
ENDBRANCH   1  27
TORSDOF 3
ENDMDL
MODEL 2
REMARK VINA RESULT:      -7.4     29.431     31.121
REMARK  Name = ZINC000000622958
REMARK                            x       y       z     vdW  Elec       q    Type
REMARK                         _______ _______ _______ _____ _____    ______ ____
ROOT
ATOM      1  C   LIG    1       30.588  15.451 197.315  0.00  0.00    +0.271 C 
ATOM      2  N   LIG    1       31.193  16.719 197.637  0.00  0.00    -0.157 N 
ATOM      3  C   LIG    1       32.448  16.790 197.249  0.00  0.00    +0.250 C 
ATOM      4  C   LIG    1       33.361  17.991 197.447  0.00  0.00    +0.124 C 
ATOM      5  C   LIG    1       33.591  18.637 196.061  0.00  0.00    +0.012 C 
ATOM      6  C   LIG    1       34.641  17.826 195.277  0.00  0.00    +0.004 C 
ATOM      7  C   LIG    1       34.211  16.415 194.822  0.00  0.00    +0.045 C 
ATOM      8  C   LIG    1       34.125  15.468 196.035  0.00  0.00    +0.236 C 
ATOM      9  N   LIG    1       32.802  15.689 196.638  0.00  0.00    -0.258 N 
ATOM     10  C   LIG    1       31.687  14.726 196.498  0.00  0.00    +0.323 C 
ENDROOT
BRANCH   1  11
ATOM     11  C   LIG    1       29.300  15.635 196.506  0.00  0.00    +0.034 A 
ATOM     12  C   LIG    1       28.055  15.457 197.136  0.00  0.00    +0.060 A 
ATOM     13  C   LIG    1       26.899  15.619 196.391  0.00  0.00    +0.167 A 
ATOM     14  O   LIG    1       25.629  15.481 196.826  0.00  0.00    -0.453 OA
ATOM     15  C   LIG    1       24.762  15.756 195.651  0.00  0.00    +0.466 C 
ATOM     16  O   LIG    1       25.699  16.058 194.543  0.00  0.00    -0.453 OA
ATOM     17  C   LIG    1       26.941  15.953 195.063  0.00  0.00    +0.166 A 
ATOM     18  C   LIG    1       28.148  16.141 194.408  0.00  0.00    +0.050 A 
ATOM     19  C   LIG    1       29.330  15.979 195.137  0.00  0.00    +0.014 A 
ENDBRANCH   1  11
BRANCH   2  20
ATOM     20  C   LIG    1       30.472  17.781 198.243  0.00  0.00    +0.124 A 
ATOM     21  C   LIG    1       30.398  17.858 199.633  0.00  0.00    +0.050 A 
ATOM     22  C   LIG    1       29.699  18.912 200.217  0.00  0.00    +0.024 A 
ATOM     23  C   LIG    1       29.085  19.875 199.410  0.00  0.00    +0.041 A 
ATOM     24 CL   LIG    1       28.220  21.183 200.140  0.00  0.00    -0.084 Cl
ATOM     25  C   LIG    1       29.167  19.787 198.016  0.00  0.00    +0.024 A 
ATOM     26  C   LIG    1       29.863  18.736 197.427  0.00  0.00    +0.050 A 
ENDBRANCH   2  20
BRANCH   1  27
ATOM     27  O   LIG    1       30.378  14.791 198.556  0.00  0.00    -0.347 OA
ATOM     28  H   LIG    1       29.612  14.207 198.456  0.00  0.00    +0.215 HD
ENDBRANCH   1  27
TORSDOF 3
ENDMDL
MODEL 3
REMARK VINA RESULT:      -7.2      2.431      5.524
REMARK  Name = ZINC000000622958
REMARK                            x       y       z     vdW  Elec       q    Type
REMARK                         _______ _______ _______ _____ _____    ______ ____
ROOT
ATOM      1  C   LIG    1       23.715  44.803 180.596  0.00  0.00    +0.271 C 
ATOM      2  N   LIG    1       23.340  43.580 181.259  0.00  0.00    -0.157 N 
ATOM      3  C   LIG    1       22.527  42.843 180.535  0.00  0.00    +0.250 C 
ATOM      4  C   LIG    1       21.947  41.501 180.956  0.00  0.00    +0.124 C 
ATOM      5  C   LIG    1       22.628  40.409 180.099  0.00  0.00    +0.012 C 
ATOM      6  C   LIG    1       21.987  40.372 178.699  0.00  0.00    +0.004 C 
ATOM      7  C   LIG    1       22.255  41.594 177.795  0.00  0.00    +0.045 C 
ATOM      8  C   LIG    1       21.476  42.819 178.314  0.00  0.00    +0.236 C 
ATOM      9  N   LIG    1       22.301  43.411 179.378  0.00  0.00    -0.258 N 
ATOM     10  C   LIG    1       23.071  44.662 179.193  0.00  0.00    +0.323 C 
ENDROOT
BRANCH   1  11
ATOM     11  C   LIG    1       25.238  44.951 180.514  0.00  0.00    +0.034 A 
ATOM     12  C   LIG    1       25.890  45.867 181.360  0.00  0.00    +0.060 A 
ATOM     13  C   LIG    1       27.266  45.996 181.271  0.00  0.00    +0.167 A 
ATOM     14  O   LIG    1       28.051  46.823 181.994  0.00  0.00    -0.453 OA
ATOM     15  C   LIG    1       29.439  46.585 181.522  0.00  0.00    +0.466 C 
ATOM     16  O   LIG    1       29.317  45.544 180.474  0.00  0.00    -0.453 OA
ATOM     17  C   LIG    1       28.002  45.252 180.385  0.00  0.00    +0.166 A 
ATOM     18  C   LIG    1       27.395  44.338 179.539  0.00  0.00    +0.050 A 
ATOM     19  C   LIG    1       26.007  44.191 179.607  0.00  0.00    +0.014 A 
ENDBRANCH   1  11
BRANCH   2  20
ATOM     20  C   LIG    1       23.860  43.204 182.525  0.00  0.00    +0.124 A 
ATOM     21  C   LIG    1       25.016  42.425 182.592  0.00  0.00    +0.050 A 
ATOM     22  C   LIG    1       25.525  42.074 183.839  0.00  0.00    +0.024 A 
ATOM     23  C   LIG    1       24.879  42.502 185.003  0.00  0.00    +0.041 A 
ATOM     24 CL   LIG    1       25.516  42.064 186.551  0.00  0.00    -0.084 Cl
ATOM     25  C   LIG    1       23.721  43.282 184.923  0.00  0.00    +0.024 A 
ATOM     26  C   LIG    1       23.207  43.636 183.680  0.00  0.00    +0.050 A 
ENDBRANCH   2  20
BRANCH   1  27
ATOM     27  O   LIG    1       23.090  45.852 181.324  0.00  0.00    -0.347 OA
ATOM     28  H   LIG    1       22.469  46.298 180.728  0.00  0.00    +0.215 HD
ENDBRANCH   1  27
TORSDOF 3
ENDMDL
MODEL 4
REMARK VINA RESULT:      -7.1     26.821     29.035
REMARK  Name = ZINC000000622958
REMARK                            x       y       z     vdW  Elec       q    Type
REMARK                         _______ _______ _______ _____ _____    ______ ____
ROOT
ATOM      1  C   LIG    1       38.092  20.151 189.035  0.00  0.00    +0.271 C 
ATOM      2  N   LIG    1       38.594  18.928 189.609  0.00  0.00    -0.157 N 
ATOM      3  C   LIG    1       38.501  18.912 190.920  0.00  0.00    +0.250 C 
ATOM      4  C   LIG    1       38.950  17.769 191.818  0.00  0.00    +0.124 C 
ATOM      5  C   LIG    1       37.679  17.093 192.384  0.00  0.00    +0.012 C 
ATOM      6  C   LIG    1       37.116  17.934 193.546  0.00  0.00    +0.004 C 
ATOM      7  C   LIG    1       36.516  19.304 193.167  0.00  0.00    +0.045 C 
ATOM      8  C   LIG    1       37.637  20.283 192.767  0.00  0.00    +0.236 C 
ATOM      9  N   LIG    1       37.938  20.011 191.353  0.00  0.00    -0.258 N 
ATOM     10  C   LIG    1       37.510  20.908 190.256  0.00  0.00    +0.323 C 
ENDROOT
BRANCH   1  11
ATOM     11  C   LIG    1       37.023  19.872 187.972  0.00  0.00    +0.034 A 
ATOM     12  C   LIG    1       35.704  19.595 188.373  0.00  0.00    +0.060 A 
ATOM     13  C   LIG    1       34.750  19.338 187.402  0.00  0.00    +0.167 A 
ATOM     14  O   LIG    1       33.447  19.048 187.604  0.00  0.00    -0.453 OA
ATOM     15  C   LIG    1       32.858  18.857 186.253  0.00  0.00    +0.466 C 
ATOM     16  O   LIG    1       33.979  19.076 185.309  0.00  0.00    -0.453 OA
ATOM     17  C   LIG    1       35.061  19.352 186.068  0.00  0.00    +0.166 A 
ATOM     18  C   LIG    1       36.349  19.625 185.634  0.00  0.00    +0.050 A 
ATOM     19  C   LIG    1       37.331  19.885 186.594  0.00  0.00    +0.014 A 
ENDBRANCH   1  11
BRANCH   2  20
ATOM     20  C   LIG    1       39.069  17.849 188.818  0.00  0.00    +0.124 A 
ATOM     21  C   LIG    1       38.208  16.800 188.496  0.00  0.00    +0.050 A 
ATOM     22  C   LIG    1       38.681  15.753 187.709  0.00  0.00    +0.024 A 
ATOM     23  C   LIG    1       40.002  15.764 187.252  0.00  0.00    +0.041 A 
ATOM     24 CL   LIG    1       40.584  14.462 186.273  0.00  0.00    -0.084 Cl
ATOM     25  C   LIG    1       40.856  16.822 187.581  0.00  0.00    +0.024 A 
ATOM     26  C   LIG    1       40.390  17.870 188.368  0.00  0.00    +0.050 A 
ENDBRANCH   2  20
BRANCH   1  27
ATOM     27  O   LIG    1       39.225  20.838 188.520  0.00  0.00    -0.347 OA
ATOM     28  H   LIG    1       39.684  21.252 189.266  0.00  0.00    +0.215 HD
ENDBRANCH   1  27
TORSDOF 3
ENDMDL
MODEL 5
REMARK VINA RESULT:      -7.1     28.842     30.713
REMARK  Name = ZINC000000622958
REMARK                            x       y       z     vdW  Elec       q    Type
REMARK                         _______ _______ _______ _____ _____    ______ ____
ROOT
ATOM      1  C   LIG    1       31.047  16.817 198.202  0.00  0.00    +0.271 C 
ATOM      2  N   LIG    1       29.808  17.399 197.752  0.00  0.00    -0.157 N 
ATOM      3  C   LIG    1       29.362  18.328 198.568  0.00  0.00    +0.250 C 
ATOM      4  C   LIG    1       28.079  19.124 198.377  0.00  0.00    +0.124 C 
ATOM      5  C   LIG    1       28.479  20.573 198.014  0.00  0.00    +0.012 C 
ATOM      6  C   LIG    1       28.892  21.333 199.289  0.00  0.00    +0.004 C 
ATOM      7  C   LIG    1       30.206  20.877 199.958  0.00  0.00    +0.045 C 
ATOM      8  C   LIG    1       30.013  19.501 200.627  0.00  0.00    +0.236 C 
ATOM      9  N   LIG    1       30.192  18.499 199.566  0.00  0.00    -0.258 N 
ATOM     10  C   LIG    1       31.408  17.663 199.449  0.00  0.00    +0.323 C 
ENDROOT
BRANCH   1  11
ATOM     11  C   LIG    1       32.130  16.900 197.121  0.00  0.00    +0.034 A 
ATOM     12  C   LIG    1       32.795  18.120 196.900  0.00  0.00    +0.060 A 
ATOM     13  C   LIG    1       33.766  18.183 195.915  0.00  0.00    +0.167 A 
ATOM     14  O   LIG    1       34.495  19.263 195.564  0.00  0.00    -0.453 OA
ATOM     15  C   LIG    1       35.388  18.813 194.465  0.00  0.00    +0.466 C 
ATOM     16  O   LIG    1       35.064  17.381 194.265  0.00  0.00    -0.453 OA
ATOM     17  C   LIG    1       34.095  17.088 195.159  0.00  0.00    +0.166 A 
ATOM     18  C   LIG    1       33.464  15.869 195.350  0.00  0.00    +0.050 A 
ATOM     19  C   LIG    1       32.478  15.780 196.336  0.00  0.00    +0.014 A 
ENDBRANCH   1  11
BRANCH   2  20
ATOM     20  C   LIG    1       29.194  17.040 196.523  0.00  0.00    +0.124 A 
ATOM     21  C   LIG    1       28.342  15.937 196.475  0.00  0.00    +0.050 A 
ATOM     22  C   LIG    1       27.735  15.602 195.267  0.00  0.00    +0.024 A 
ATOM     23  C   LIG    1       27.983  16.369 194.124  0.00  0.00    +0.041 A 
ATOM     24 CL   LIG    1       27.225  15.951 192.627  0.00  0.00    -0.084 Cl
ATOM     25  C   LIG    1       28.839  17.474 194.185  0.00  0.00    +0.024 A 
ATOM     26  C   LIG    1       29.449  17.813 195.389  0.00  0.00    +0.050 A 
ENDBRANCH   2  20
BRANCH   1  27
ATOM     27  O   LIG    1       30.738  15.482 198.582  0.00  0.00    -0.347 OA
ATOM     28  H   LIG    1       31.365  14.894 198.135  0.00  0.00    +0.215 HD
ENDBRANCH   1  27
TORSDOF 3
ENDMDL
MODEL 6
REMARK VINA RESULT:      -7.0     29.198     31.523
REMARK  Name = ZINC000000622958
REMARK                            x       y       z     vdW  Elec       q    Type
REMARK                         _______ _______ _______ _____ _____    ______ ____
ROOT
ATOM      1  C   LIG    1       29.493  16.505 199.465  0.00  0.00    +0.271 C 
ATOM      2  N   LIG    1       28.281  17.216 199.147  0.00  0.00    -0.157 N 
ATOM      3  C   LIG    1       28.306  18.464 199.560  0.00  0.00    +0.250 C 
ATOM      4  C   LIG    1       27.180  19.471 199.383  0.00  0.00    +0.124 C 
ATOM      5  C   LIG    1       27.641  20.508 198.333  0.00  0.00    +0.012 C 
ATOM      6  C   LIG    1       28.595  21.524 198.991  0.00  0.00    +0.004 C 
ATOM      7  C   LIG    1       29.974  20.982 199.423  0.00  0.00    +0.045 C 
ATOM      8  C   LIG    1       29.824  20.060 200.649  0.00  0.00    +0.236 C 
ATOM      9  N   LIG    1       29.454  18.736 200.127  0.00  0.00    -0.258 N 
ATOM     10  C   LIG    1       30.403  17.601 200.075  0.00  0.00    +0.323 C 
ENDROOT
BRANCH   1  11
ATOM     11  C   LIG    1       30.117  15.874 198.215  0.00  0.00    +0.034 A 
ATOM     12  C   LIG    1       30.805  16.689 197.299  0.00  0.00    +0.060 A 
ATOM     13  C   LIG    1       31.357  16.107 196.169  0.00  0.00    +0.167 A 
ATOM     14  O   LIG    1       32.041  16.732 195.188  0.00  0.00    -0.453 OA
ATOM     15  C   LIG    1       32.415  15.674 194.214  0.00  0.00    +0.466 C 
ATOM     16  O   LIG    1       31.863  14.419 194.776  0.00  0.00    -0.453 OA
ATOM     17  C   LIG    1       31.252  14.761 195.930  0.00  0.00    +0.166 A 
ATOM     18  C   LIG    1       30.584  13.926 196.812  0.00  0.00    +0.050 A 
ATOM     19  C   LIG    1       30.015  14.490 197.957  0.00  0.00    +0.014 A 
ENDBRANCH   1  11
BRANCH   2  20
ATOM     20  C   LIG    1       27.221  16.631 198.406  0.00  0.00    +0.124 A 
ATOM     21  C   LIG    1       26.144  16.055 199.081  0.00  0.00    +0.050 A 
ATOM     22  C   LIG    1       25.104  15.496 198.345  0.00  0.00    +0.024 A 
ATOM     23  C   LIG    1       25.146  15.518 196.947  0.00  0.00    +0.041 A 
ATOM     24 CL   LIG    1       23.850  14.823 196.036  0.00  0.00    -0.084 Cl
ATOM     25  C   LIG    1       26.232  16.098 196.281  0.00  0.00    +0.024 A 
ATOM     26  C   LIG    1       27.275  16.658 197.012  0.00  0.00    +0.050 A 
ENDBRANCH   2  20
BRANCH   1  27
ATOM     27  O   LIG    1       29.139  15.549 200.455  0.00  0.00    -0.347 OA
ATOM     28  H   LIG    1       29.924  15.014 200.646  0.00  0.00    +0.215 HD
ENDBRANCH   1  27
TORSDOF 3
ENDMDL
MODEL 7
REMARK VINA RESULT:      -6.9     27.544     30.624
REMARK  Name = ZINC000000622958
REMARK                            x       y       z     vdW  Elec       q    Type
REMARK                         _______ _______ _______ _____ _____    ______ ____
ROOT
ATOM      1  C   LIG    1       22.482  39.490 211.317  0.00  0.00    +0.271 C 
ATOM      2  N   LIG    1       21.719  40.388 210.487  0.00  0.00    -0.157 N 
ATOM      3  C   LIG    1       20.493  39.962 210.278  0.00  0.00    +0.250 C 
ATOM      4  C   LIG    1       19.445  40.679 209.441  0.00  0.00    +0.124 C 
ATOM      5  C   LIG    1       18.375  41.237 210.409  0.00  0.00    +0.012 C 
ATOM      6  C   LIG    1       17.421  40.105 210.837  0.00  0.00    +0.004 C 
ATOM      7  C   LIG    1       18.025  39.011 211.742  0.00  0.00    +0.045 C 
ATOM      8  C   LIG    1       18.996  38.128 210.934  0.00  0.00    +0.236 C 
ATOM      9  N   LIG    1       20.283  38.839 210.917  0.00  0.00    -0.258 N 
ATOM     10  C   LIG    1       21.443  38.419 211.734  0.00  0.00    +0.323 C 
ENDROOT
BRANCH   1  11
ATOM     11  C   LIG    1       23.075  40.216 212.529  0.00  0.00    +0.034 A 
ATOM     12  C   LIG    1       24.468  40.380 212.625  0.00  0.00    +0.060 A 
ATOM     13  C   LIG    1       24.991  41.031 213.730  0.00  0.00    +0.167 A 
ATOM     14  O   LIG    1       26.294  41.270 213.987  0.00  0.00    -0.453 OA
ATOM     15  C   LIG    1       26.327  41.991 215.286  0.00  0.00    +0.466 C 
ATOM     16  O   LIG    1       24.908  42.115 215.695  0.00  0.00    -0.453 OA
ATOM     17  C   LIG    1       24.184  41.521 214.723  0.00  0.00    +0.166 A 
ATOM     18  C   LIG    1       22.807  41.382 214.662  0.00  0.00    +0.050 A 
ATOM     19  C   LIG    1       22.254  40.725 213.559  0.00  0.00    +0.014 A 
ENDBRANCH   1  11
BRANCH   2  20
ATOM     20  C   LIG    1       22.237  41.624 210.017  0.00  0.00    +0.124 A 
ATOM     21  C   LIG    1       21.694  42.821 210.483  0.00  0.00    +0.050 A 
ATOM     22  C   LIG    1       22.219  44.026 210.025  0.00  0.00    +0.024 A 
ATOM     23  C   LIG    1       23.277  44.026 209.112  0.00  0.00    +0.041 A 
ATOM     24 CL   LIG    1       23.928  45.526 208.547  0.00  0.00    -0.084 Cl
ATOM     25  C   LIG    1       23.814  42.818 208.652  0.00  0.00    +0.024 A 
ATOM     26  C   LIG    1       23.293  41.610 209.105  0.00  0.00    +0.050 A 
ENDBRANCH   2  20
BRANCH   1  27
ATOM     27  O   LIG    1       23.470  38.917 210.471  0.00  0.00    -0.347 OA
ATOM     28  H   LIG    1       24.319  38.958 210.936  0.00  0.00    +0.215 HD
ENDBRANCH   1  27
TORSDOF 3
ENDMDL
MODEL 8
REMARK VINA RESULT:      -6.9     26.959     28.796
REMARK  Name = ZINC000000622958
REMARK                            x       y       z     vdW  Elec       q    Type
REMARK                         _______ _______ _______ _____ _____    ______ ____
ROOT
ATOM      1  C   LIG    1       24.690  43.826 208.887  0.00  0.00    +0.271 C 
ATOM      2  N   LIG    1       25.557  44.179 209.983  0.00  0.00    -0.157 N 
ATOM      3  C   LIG    1       25.865  45.457 209.989  0.00  0.00    +0.250 C 
ATOM      4  C   LIG    1       26.765  46.138 211.011  0.00  0.00    +0.124 C 
ATOM      5  C   LIG    1       25.869  47.032 211.899  0.00  0.00    +0.012 C 
ATOM      6  C   LIG    1       25.537  48.339 211.154  0.00  0.00    +0.004 C 
ATOM      7  C   LIG    1       24.611  48.206 209.927  0.00  0.00    +0.045 C 
ATOM      8  C   LIG    1       25.361  47.526 208.765  0.00  0.00    +0.236 C 
ATOM      9  N   LIG    1       25.267  46.078 209.005  0.00  0.00    -0.258 N 
ATOM     10  C   LIG    1       24.374  45.192 208.226  0.00  0.00    +0.323 C 
ENDROOT
BRANCH   1  11
ATOM     11  C   LIG    1       23.421  43.122 209.381  0.00  0.00    +0.034 A 
ATOM     12  C   LIG    1       23.268  41.741 209.165  0.00  0.00    +0.060 A 
ATOM     13  C   LIG    1       22.114  41.118 209.609  0.00  0.00    +0.167 A 
ATOM     14  O   LIG    1       21.798  39.812 209.483  0.00  0.00    -0.453 OA
ATOM     15  C   LIG    1       20.464  39.652 210.117  0.00  0.00    +0.466 C 
ATOM     16  O   LIG    1       20.100  41.005 210.598  0.00  0.00    -0.453 OA
ATOM     17  C   LIG    1       21.126  41.814 210.256  0.00  0.00    +0.166 A 
ATOM     18  C   LIG    1       21.243  43.174 210.491  0.00  0.00    +0.050 A 
ATOM     19  C   LIG    1       22.397  43.827 210.048  0.00  0.00    +0.014 A 
ENDBRANCH   1  11
BRANCH   2  20
ATOM     20  C   LIG    1       25.961  43.244 210.972  0.00  0.00    +0.124 A 
ATOM     21  C   LIG    1       27.167  42.559 210.821  0.00  0.00    +0.050 A 
ATOM     22  C   LIG    1       27.559  41.654 211.803  0.00  0.00    +0.024 A 
ATOM     23  C   LIG    1       26.750  41.443 212.923  0.00  0.00    +0.041 A 
ATOM     24 CL   LIG    1       27.243  40.320 214.143  0.00  0.00    -0.084 Cl
ATOM     25  C   LIG    1       25.542  42.137 213.064  0.00  0.00    +0.024 A 
ATOM     26  C   LIG    1       25.144  43.042 212.085  0.00  0.00    +0.050 A 
ENDBRANCH   2  20
BRANCH   1  27
ATOM     27  O   LIG    1       25.470  43.023 208.012  0.00  0.00    -0.347 OA
ATOM     28  H   LIG    1       25.705  42.211 208.485  0.00  0.00    +0.215 HD
ENDBRANCH   1  27
TORSDOF 3
ENDMDL
MODEL 9
REMARK VINA RESULT:      -6.9     26.424     29.024
REMARK  Name = ZINC000000622958
REMARK                            x       y       z     vdW  Elec       q    Type
REMARK                         _______ _______ _______ _____ _____    ______ ____
ROOT
ATOM      1  C   LIG    1       22.846  44.553 210.784  0.00  0.00    +0.271 C 
ATOM      2  N   LIG    1       23.550  43.340 211.117  0.00  0.00    -0.157 N 
ATOM      3  C   LIG    1       22.791  42.273 211.008  0.00  0.00    +0.250 C 
ATOM      4  C   LIG    1       23.236  40.846 211.294  0.00  0.00    +0.124 C 
ATOM      5  C   LIG    1       23.326  40.104 209.940  0.00  0.00    +0.012 C 
ATOM      6  C   LIG    1       21.915  39.690 209.479  0.00  0.00    +0.004 C 
ATOM      7  C   LIG    1       20.969  40.838 209.068  0.00  0.00    +0.045 C 
ATOM      8  C   LIG    1       20.523  41.632 210.312  0.00  0.00    +0.236 C 
ATOM      9  N   LIG    1       21.595  42.600 210.588  0.00  0.00    -0.258 N 
ATOM     10  C   LIG    1       21.467  44.045 210.294  0.00  0.00    +0.323 C 
ENDROOT
BRANCH   1  11
ATOM     11  C   LIG    1       23.582  45.348 209.700  0.00  0.00    +0.034 A 
ATOM     12  C   LIG    1       24.139  46.600 210.017  0.00  0.00    +0.060 A 
ATOM     13  C   LIG    1       24.795  47.311 209.026  0.00  0.00    +0.167 A 
ATOM     14  O   LIG    1       25.379  48.521 209.149  0.00  0.00    -0.453 OA
ATOM     15  C   LIG    1       25.936  48.843 207.809  0.00  0.00    +0.466 C 
ATOM     16  O   LIG    1       25.592  47.680 206.958  0.00  0.00    -0.453 OA
ATOM     17  C   LIG    1       24.916  46.821 207.751  0.00  0.00    +0.166 A 
ATOM     18  C   LIG    1       24.384  45.590 207.402  0.00  0.00    +0.050 A 
ATOM     19  C   LIG    1       23.714  44.855 208.384  0.00  0.00    +0.014 A 
ENDBRANCH   1  11
BRANCH   2  20
ATOM     20  C   LIG    1       24.929  43.322 211.454  0.00  0.00    +0.124 A 
ATOM     21  C   LIG    1       25.319  43.561 212.772  0.00  0.00    +0.050 A 
ATOM     22  C   LIG    1       26.673  43.527 213.094  0.00  0.00    +0.024 A 
ATOM     23  C   LIG    1       27.620  43.255 212.103  0.00  0.00    +0.041 A 
ATOM     24 CL   LIG    1       29.302  43.213 212.508  0.00  0.00    -0.084 Cl
ATOM     25  C   LIG    1       27.217  43.018 210.784  0.00  0.00    +0.024 A 
ATOM     26  C   LIG    1       25.865  43.051 210.456  0.00  0.00    +0.050 A 
ENDBRANCH   2  20
BRANCH   1  27
ATOM     27  O   LIG    1       22.704  45.271 212.003  0.00  0.00    -0.347 OA
ATOM     28  H   LIG    1       22.016  45.941 211.874  0.00  0.00    +0.215 HD
ENDBRANCH   1  27
TORSDOF 3
ENDMDL
