REMARK VINA RESULT:      -7.7     29.258     33.470
REMARK  Name = ZINC000049421769
REMARK                            x       y       z     vdW  Elec       q    Type
REMARK                         _______ _______ _______ _____ _____    ______ ____
ROOT
ATOM      1  C   LIG    1       25.866  27.425 205.335  0.00  0.00    +0.088 C 
ATOM      2  C   LIG    1       26.652  26.139 205.207  0.00  0.00    +0.135 A 
ATOM      3  N   LIG    1       27.524  25.615 206.099  0.00  0.00    -0.276 N 
ATOM      4  C   LIG    1       27.997  26.039 207.393  0.00  0.00    +0.075 A 
ATOM      5  C   LIG    1       27.617  27.247 208.000  0.00  0.00    +0.028 A 
ATOM      6  C   LIG    1       28.111  27.561 209.258  0.00  0.00    +0.002 A 
ATOM      7  C   LIG    1       28.978  26.682 209.912  0.00  0.00    +0.002 A 
ATOM      8  C   LIG    1       29.358  25.494 209.307  0.00  0.00    +0.030 A 
ATOM      9  C   LIG    1       28.884  25.154 208.035  0.00  0.00    +0.089 A 
ATOM     10  N   LIG    1       29.312  23.961 207.458  0.00  0.00    -0.235 NA
ATOM     11  C   LIG    1       28.874  23.634 206.286  0.00  0.00    +0.143 A 
ATOM     12  C   LIG    1       27.953  24.464 205.552  0.00  0.00    +0.194 A 
ATOM     13  N   LIG    1       27.388  24.289 204.384  0.00  0.00    -0.127 NA
ATOM     14  N   LIG    1       26.571  25.351 204.180  0.00  0.00    -0.134 NA
ENDROOT
BRANCH  11  15
ATOM     15  S   LIG    1       29.411  22.134 205.581  0.00  0.00    -0.093 S 
BRANCH  15  16
ATOM     16  C   LIG    1       29.862  21.113 207.044  0.00  0.00    +0.172 C 
BRANCH  16  17
ATOM     17  C   LIG    1       28.557  20.778 207.738  0.00  0.00    +0.227 C 
ATOM     18  N   LIG    1       28.504  20.972 209.094  0.00  0.00    -0.284 N 
ATOM     19  H   LIG    1       29.387  21.223 209.558  0.00  0.00    +0.155 HD
ATOM     20  O   LIG    1       27.597  20.332 207.146  0.00  0.00    -0.275 OA
BRANCH  18  21
ATOM     21  C   LIG    1       27.404  20.659 209.924  0.00  0.00    +0.039 A 
ATOM     22  C   LIG    1       27.340  19.369 210.474  0.00  0.00    -0.029 A 
ATOM     23  C   LIG    1       28.385  18.311 210.160  0.00  0.00    +0.045 C 
ATOM     24  C   LIG    1       26.273  19.053 211.310  0.00  0.00    +0.005 A 
ATOM     25  C   LIG    1       25.292  19.999 211.594  0.00  0.00    +0.001 A 
ATOM     26  C   LIG    1       25.369  21.277 211.046  0.00  0.00    +0.005 A 
ATOM     27  C   LIG    1       26.426  21.627 210.210  0.00  0.00    -0.029 A 
ATOM     28  C   LIG    1       26.479  23.033 209.638  0.00  0.00    +0.045 C 
ENDBRANCH  18  21
ENDBRANCH  16  17
ENDBRANCH  15  16
ENDBRANCH  11  15
TORSDOF 4
