REMARK VINA RESULT:      -8.0     25.521     27.390
REMARK  Name = ZINC000000603759
REMARK                            x       y       z     vdW  Elec       q    Type
REMARK                         _______ _______ _______ _____ _____    ______ ____
ROOT
ATOM      1  C   LIG    1       18.334  39.291 209.949  0.00  0.00    +0.139 A 
ATOM      2  C   LIG    1       17.661  38.794 211.098  0.00  0.00    +0.050 A 
ATOM      3  C   LIG    1       17.914  38.755 212.481  0.00  0.00    +0.015 A 
ATOM      4  C   LIG    1       16.965  38.154 213.286  0.00  0.00    +0.020 A 
ATOM      5  C   LIG    1       15.790  37.604 212.720  0.00  0.00    +0.113 A 
ATOM      6  N   LIG    1       15.542  37.638 211.426  0.00  0.00    -0.236 NA
ATOM      7  C   LIG    1       16.484  38.239 210.653  0.00  0.00    +0.159 A 
ATOM      8  N   LIG    1       16.477  38.417 209.299  0.00  0.00    -0.241 N 
ATOM      9  N   LIG    1       17.601  39.050 208.865  0.00  0.00    -0.165 NA
ENDROOT
BRANCH   1  14
ATOM     10  C   LIG    1       21.929  39.863 209.772  0.00  0.00    +0.128 A 
ATOM     11  C   LIG    1       22.057  41.250 209.927  0.00  0.00    +0.040 A 
ATOM     12  C   LIG    1       20.871  41.947 210.095  0.00  0.00    +0.125 A 
ATOM     13  N   LIG    1       19.706  41.318 210.101  0.00  0.00    -0.234 NA
ATOM     14  C   LIG    1       19.644  39.969 209.940  0.00  0.00    +0.183 A 
ATOM     15  N   LIG    1       20.769  39.251 209.776  0.00  0.00    -0.211 NA
BRANCH  11  16
ATOM     16  C   LIG    1       23.343  41.931 209.912  0.00  0.00    -0.010 A 
ATOM     17  C   LIG    1       23.858  42.498 208.745  0.00  0.00    +0.028 A 
ATOM     18  C   LIG    1       25.087  43.144 208.767  0.00  0.00    +0.111 A 
ATOM     19  N   LIG    1       25.806  43.244 209.884  0.00  0.00    -0.263 NA
ATOM     20  C   LIG    1       25.341  42.714 211.015  0.00  0.00    +0.111 A 
ATOM     21  C   LIG    1       24.120  42.055 211.065  0.00  0.00    +0.028 A 
ENDBRANCH  11  16
BRANCH  10  22
ATOM     22  N   LIG    1       22.983  39.027 209.620  0.00  0.00    -0.343 N 
ATOM     23  H   LIG    1       23.194  38.705 208.668  0.00  0.00    +0.144 HD
ATOM     24  H   LIG    1       23.780  39.252 210.233  0.00  0.00    +0.144 HD
ENDBRANCH  10  22
ENDBRANCH   1  14
BRANCH   8  25
ATOM     25  C   LIG    1       15.403  37.998 208.403  0.00  0.00    +0.183 C 
BRANCH  25  26
ATOM     26  C   LIG    1       15.488  36.483 208.271  0.00  0.00    +0.009 A 
ATOM     27  C   LIG    1       16.577  35.871 207.651  0.00  0.00    +0.128 A 
ATOM     28  F   LIG    1       17.580  36.630 207.144  0.00  0.00    -0.205 F 
ATOM     29  C   LIG    1       16.681  34.493 207.513  0.00  0.00    +0.039 A 
ATOM     30  C   LIG    1       15.658  33.689 208.008  0.00  0.00    +0.003 A 
ATOM     31  C   LIG    1       14.554  34.274 208.626  0.00  0.00    +0.000 A 
ATOM     32  C   LIG    1       14.468  35.660 208.756  0.00  0.00    +0.008 A 
ENDBRANCH  25  26
ENDBRANCH   8  25
TORSDOF 5
