MODEL 1
REMARK VINA RESULT:      -7.7      0.000      0.000
REMARK  Name = ZINC000006087397
REMARK                            x       y       z     vdW  Elec       q    Type
REMARK                         _______ _______ _______ _____ _____    ______ ____
ROOT
ATOM      1  C   LIG    1       22.493  45.742 183.584  0.00  0.00    +0.214 C 
ENDROOT
BRANCH   1   7
ATOM      2  C   LIG    1       22.658  50.578 183.460  0.00  0.00    +0.010 C 
ATOM      3  C   LIG    1       21.140  50.426 183.701  0.00  0.00    +0.018 C 
ATOM      4  C   LIG    1       20.775  49.016 184.271  0.00  0.00    +0.115 C 
ATOM      5  C   LIG    1       21.218  47.892 183.340  0.00  0.00    +0.247 C 
ATOM      6  O   LIG    1       20.963  47.709 182.163  0.00  0.00    -0.273 OA
ATOM      7  N   LIG    1       22.006  47.044 184.056  0.00  0.00    -0.215 N 
ATOM      8  C   LIG    1       22.168  47.511 185.334  0.00  0.00    +0.310 C 
ATOM      9  O   LIG    1       22.802  46.962 186.216  0.00  0.00    -0.252 OA
ATOM     10  N   LIG    1       21.526  48.689 185.475  0.00  0.00    -0.285 N 
ATOM     11  H   LIG    1       21.321  49.048 186.413  0.00  0.00    +0.151 HD
ATOM     12  C   LIG    1       19.255  48.895 184.545  0.00  0.00    +0.035 C 
ATOM     13  C   LIG    1       18.813  50.013 185.509  0.00  0.00    +0.003 C 
ATOM     14  C   LIG    1       19.161  51.401 184.955  0.00  0.00    +0.000 C 
ATOM     15  C   LIG    1       20.666  51.519 184.680  0.00  0.00    +0.006 C 
ENDBRANCH   1   7
BRANCH   1  16
ATOM     16  C   LIG    1       23.899  45.964 183.016  0.00  0.00    +0.238 C 
ATOM     17  N   LIG    1       24.650  44.929 182.442  0.00  0.00    -0.267 N 
ATOM     18  O   LIG    1       24.399  47.073 183.090  0.00  0.00    -0.274 OA
BRANCH  17  19
ATOM     19  C   LIG    1       25.936  45.149 181.852  0.00  0.00    +0.010 C 
ATOM     20  C   LIG    1       27.098  45.340 182.816  0.00  0.00    +0.051 C 
ATOM     21  C   LIG    1       28.214  46.100 182.067  0.00  0.00    +0.006 C 
ATOM     22  C   LIG    1       28.537  45.296 180.792  0.00  0.00    +0.004 C 
ATOM     23  C   LIG    1       27.370  45.479 179.797  0.00  0.00    +0.029 C 
ATOM     24  C   LIG    1       26.062  45.186 180.511  0.00  0.00    -0.008 C 
ENDBRANCH  17  19
BRANCH  17  25
ATOM     25  C   LIG    1       24.131  43.547 182.380  0.00  0.00    +0.187 C 
BRANCH  25  26
ATOM     26  C   LIG    1       24.673  42.853 183.615  0.00  0.00    +0.122 A 
ATOM     27  O   LIG    1       23.997  42.901 184.796  0.00  0.00    -0.466 OA
ATOM     28  C   LIG    1       24.714  42.194 185.704  0.00  0.00    +0.195 A 
ATOM     29  C   LIG    1       25.827  41.701 185.115  0.00  0.00    +0.041 A 
ATOM     30  C   LIG    1       25.799  42.122 183.782  0.00  0.00    +0.046 A 
ENDBRANCH  25  26
ENDBRANCH  17  25
ENDBRANCH   1  16
TORSDOF 5
ENDMDL
MODEL 2
REMARK VINA RESULT:      -7.3     30.578     35.240
REMARK  Name = ZINC000006087397
REMARK                            x       y       z     vdW  Elec       q    Type
REMARK                         _______ _______ _______ _____ _____    ______ ____
ROOT
ATOM      1  C   LIG    1       29.287  22.009 206.015  0.00  0.00    +0.214 C 
ENDROOT
BRANCH   1   7
ATOM      2  C   LIG    1       28.577  18.590 209.366  0.00  0.00    +0.010 C 
ATOM      3  C   LIG    1       28.590  17.669 208.126  0.00  0.00    +0.018 C 
ATOM      4  C   LIG    1       29.269  18.354 206.895  0.00  0.00    +0.115 C 
ATOM      5  C   LIG    1       28.571  19.653 206.508  0.00  0.00    +0.247 C 
ATOM      6  O   LIG    1       27.402  19.858 206.236  0.00  0.00    -0.273 OA
ATOM      7  N   LIG    1       29.506  20.642 206.503  0.00  0.00    -0.215 N 
ATOM      8  C   LIG    1       30.724  20.147 206.891  0.00  0.00    +0.310 C 
ATOM      9  O   LIG    1       31.758  20.784 206.967  0.00  0.00    -0.252 OA
ATOM     10  N   LIG    1       30.610  18.838 207.194  0.00  0.00    -0.285 N 
ATOM     11  H   LIG    1       31.449  18.252 207.249  0.00  0.00    +0.151 HD
ATOM     12  C   LIG    1       29.310  17.402 205.673  0.00  0.00    +0.035 C 
ATOM     13  C   LIG    1       30.041  16.100 206.056  0.00  0.00    +0.003 C 
ATOM     14  C   LIG    1       29.378  15.418 207.260  0.00  0.00    +0.000 C 
ATOM     15  C   LIG    1       29.333  16.362 208.469  0.00  0.00    +0.006 C 
ENDBRANCH   1   7
BRANCH   1  16
ATOM     16  C   LIG    1       29.112  22.907 207.244  0.00  0.00    +0.238 C 
ATOM     17  N   LIG    1       29.123  24.306 207.161  0.00  0.00    -0.267 N 
ATOM     18  O   LIG    1       28.986  22.391 208.341  0.00  0.00    -0.274 OA
BRANCH  17  19
ATOM     19  C   LIG    1       28.894  25.145 208.299  0.00  0.00    +0.010 C 
ATOM     20  C   LIG    1       27.513  25.062 208.934  0.00  0.00    +0.051 C 
ATOM     21  C   LIG    1       27.273  26.371 209.716  0.00  0.00    +0.006 C 
ATOM     22  C   LIG    1       28.446  26.535 210.702  0.00  0.00    +0.004 C 
ATOM     23  C   LIG    1       29.703  26.929 209.896  0.00  0.00    +0.029 C 
ATOM     24  C   LIG    1       29.874  25.957 208.742  0.00  0.00    -0.008 C 
ENDBRANCH  17  19
BRANCH  17  25
ATOM     25  C   LIG    1       29.338  24.997 205.873  0.00  0.00    +0.187 C 
BRANCH  25  26
ATOM     26  C   LIG    1       27.974  25.515 205.455  0.00  0.00    +0.122 A 
ATOM     27  O   LIG    1       27.059  24.686 204.882  0.00  0.00    -0.466 OA
ATOM     28  C   LIG    1       25.949  25.422 204.627  0.00  0.00    +0.195 A 
ATOM     29  C   LIG    1       26.150  26.697 205.030  0.00  0.00    +0.041 A 
ATOM     30  C   LIG    1       27.443  26.755 205.559  0.00  0.00    +0.046 A 
ENDBRANCH  25  26
ENDBRANCH  17  25
ENDBRANCH   1  16
TORSDOF 5
ENDMDL
MODEL 3
REMARK VINA RESULT:      -7.3     25.681     28.245
REMARK  Name = ZINC000006087397
REMARK                            x       y       z     vdW  Elec       q    Type
REMARK                         _______ _______ _______ _____ _____    ______ ____
ROOT
ATOM      1  C   LIG    1       20.481  41.145 212.032  0.00  0.00    +0.214 C 
ENDROOT
BRANCH   1   7
ATOM      2  C   LIG    1       16.892  37.921 212.426  0.00  0.00    +0.010 C 
ATOM      3  C   LIG    1       16.684  38.286 210.939  0.00  0.00    +0.018 C 
ATOM      4  C   LIG    1       17.955  38.951 210.316  0.00  0.00    +0.115 C 
ATOM      5  C   LIG    1       18.358  40.219 211.060  0.00  0.00    +0.247 C 
ATOM      6  O   LIG    1       17.705  41.218 211.307  0.00  0.00    -0.273 OA
ATOM      7  N   LIG    1       19.656  40.082 211.445  0.00  0.00    -0.215 N 
ATOM      8  C   LIG    1       20.131  38.849 211.082  0.00  0.00    +0.310 C 
ATOM      9  O   LIG    1       21.261  38.439 211.272  0.00  0.00    -0.252 OA
ATOM     10  N   LIG    1       19.152  38.138 210.487  0.00  0.00    -0.285 N 
ATOM     11  H   LIG    1       19.389  37.313 209.926  0.00  0.00    +0.151 HD
ATOM     12  C   LIG    1       17.744  39.272 208.815  0.00  0.00    +0.035 C 
ATOM     13  C   LIG    1       17.365  37.985 208.058  0.00  0.00    +0.003 C 
ATOM     14  C   LIG    1       16.115  37.328 208.660  0.00  0.00    +0.000 C 
ATOM     15  C   LIG    1       16.323  37.013 210.147  0.00  0.00    +0.006 C 
ENDBRANCH   1   7
BRANCH   1  16
ATOM     16  C   LIG    1       21.162  41.882 210.874  0.00  0.00    +0.238 C 
ATOM     17  N   LIG    1       22.319  42.653 211.051  0.00  0.00    -0.267 N 
ATOM     18  O   LIG    1       20.668  41.821 209.762  0.00  0.00    -0.274 OA
BRANCH  17  19
ATOM     19  C   LIG    1       22.993  43.288 209.958  0.00  0.00    +0.010 C 
ATOM     20  C   LIG    1       23.852  42.389 209.079  0.00  0.00    +0.051 C 
ATOM     21  C   LIG    1       24.894  43.279 208.369  0.00  0.00    +0.006 C 
ATOM     22  C   LIG    1       24.119  44.387 207.627  0.00  0.00    +0.004 C 
ATOM     23  C   LIG    1       23.580  45.385 208.675  0.00  0.00    +0.029 C 
ATOM     24  C   LIG    1       22.854  44.614 209.763  0.00  0.00    -0.008 C 
ENDBRANCH  17  19
BRANCH  17  25
ATOM     25  C   LIG    1       22.931  42.825 212.384  0.00  0.00    +0.187 C 
BRANCH  25  26
ATOM     26  C   LIG    1       24.092  41.850 212.427  0.00  0.00    +0.122 A 
ATOM     27  O   LIG    1       23.875  40.506 212.441  0.00  0.00    -0.466 OA
ATOM     28  C   LIG    1       25.087  39.898 212.475  0.00  0.00    +0.195 A 
ATOM     29  C   LIG    1       26.061  40.836 212.482  0.00  0.00    +0.041 A 
ATOM     30  C   LIG    1       25.426  42.081 212.451  0.00  0.00    +0.046 A 
ENDBRANCH  25  26
ENDBRANCH  17  25
ENDBRANCH   1  16
TORSDOF 5
ENDMDL
MODEL 4
REMARK VINA RESULT:      -7.2     26.123     28.536
REMARK  Name = ZINC000006087397
REMARK                            x       y       z     vdW  Elec       q    Type
REMARK                         _______ _______ _______ _____ _____    ______ ____
ROOT
ATOM      1  C   LIG    1       21.317  40.761 212.673  0.00  0.00    +0.214 C 
ENDROOT
BRANCH   1   7
ATOM      2  C   LIG    1       19.141  40.712 208.349  0.00  0.00    +0.010 C 
ATOM      3  C   LIG    1       18.657  39.330 208.844  0.00  0.00    +0.018 C 
ATOM      4  C   LIG    1       18.766  39.193 210.398  0.00  0.00    +0.115 C 
ATOM      5  C   LIG    1       20.196  39.394 210.889  0.00  0.00    +0.247 C 
ATOM      6  O   LIG    1       21.219  38.822 210.561  0.00  0.00    -0.273 OA
ATOM      7  N   LIG    1       20.180  40.382 211.826  0.00  0.00    -0.215 N 
ATOM      8  C   LIG    1       18.912  40.883 211.966  0.00  0.00    +0.310 C 
ATOM      9  O   LIG    1       18.576  41.760 212.740  0.00  0.00    -0.252 OA
ATOM     10  N   LIG    1       18.078  40.266 211.104  0.00  0.00    -0.285 N 
ATOM     11  H   LIG    1       17.064  40.322 211.246  0.00  0.00    +0.151 HD
ATOM     12  C   LIG    1       18.238  37.819 210.881  0.00  0.00    +0.035 C 
ATOM     13  C   LIG    1       16.784  37.628 210.409  0.00  0.00    +0.003 C 
ATOM     14  C   LIG    1       16.668  37.756 208.884  0.00  0.00    +0.000 C 
ATOM     15  C   LIG    1       17.194  39.115 208.406  0.00  0.00    +0.006 C 
ENDBRANCH   1   7
BRANCH   1  16
ATOM     16  C   LIG    1       22.167  41.753 211.872  0.00  0.00    +0.238 C 
ATOM     17  N   LIG    1       23.441  41.430 211.386  0.00  0.00    -0.267 N 
ATOM     18  O   LIG    1       21.735  42.875 211.671  0.00  0.00    -0.274 OA
BRANCH  17  19
ATOM     19  C   LIG    1       24.209  42.333 210.582  0.00  0.00    +0.010 C 
ATOM     20  C   LIG    1       25.123  43.295 211.329  0.00  0.00    +0.051 C 
ATOM     21  C   LIG    1       25.400  44.499 210.404  0.00  0.00    +0.006 C 
ATOM     22  C   LIG    1       25.965  43.939 209.083  0.00  0.00    +0.004 C 
ATOM     23  C   LIG    1       24.810  43.265 208.311  0.00  0.00    +0.029 C 
ATOM     24  C   LIG    1       24.089  42.304 209.240  0.00  0.00    -0.008 C 
ENDBRANCH  17  19
BRANCH  17  25
ATOM     25  C   LIG    1       24.052  40.111 211.651  0.00  0.00    +0.187 C 
BRANCH  25  26
ATOM     26  C   LIG    1       25.079  40.349 212.742  0.00  0.00    +0.122 A 
ATOM     27  O   LIG    1       24.709  40.858 213.949  0.00  0.00    -0.466 OA
ATOM     28  C   LIG    1       25.828  40.952 214.711  0.00  0.00    +0.195 A 
ATOM     29  C   LIG    1       26.892  40.511 214.004  0.00  0.00    +0.041 A 
ATOM     30  C   LIG    1       26.414  40.126 212.748  0.00  0.00    +0.046 A 
ENDBRANCH  25  26
ENDBRANCH  17  25
ENDBRANCH   1  16
TORSDOF 5
ENDMDL
MODEL 5
REMARK VINA RESULT:      -7.1     25.010     27.569
REMARK  Name = ZINC000006087397
REMARK                            x       y       z     vdW  Elec       q    Type
REMARK                         _______ _______ _______ _____ _____    ______ ____
ROOT
ATOM      1  C   LIG    1       23.274  41.352 211.352  0.00  0.00    +0.214 C 
ENDROOT
BRANCH   1   7
ATOM      2  C   LIG    1       19.211  38.838 212.124  0.00  0.00    +0.010 C 
ATOM      3  C   LIG    1       18.764  39.570 210.839  0.00  0.00    +0.018 C 
ATOM      4  C   LIG    1       19.980  40.117 210.024  0.00  0.00    +0.115 C 
ATOM      5  C   LIG    1       20.830  41.083 210.843  0.00  0.00    +0.247 C 
ATOM      6  O   LIG    1       20.505  42.098 211.432  0.00  0.00    -0.273 OA
ATOM      7  N   LIG    1       22.111  40.624 210.832  0.00  0.00    -0.215 N 
ATOM      8  C   LIG    1       22.186  39.443 210.140  0.00  0.00    +0.310 C 
ATOM      9  O   LIG    1       23.200  38.801 209.939  0.00  0.00    -0.252 OA
ATOM     10  N   LIG    1       20.958  39.082 209.716  0.00  0.00    -0.285 N 
ATOM     11  H   LIG    1       20.860  38.381 208.974  0.00  0.00    +0.151 HD
ATOM     12  C   LIG    1       19.517  40.812 208.718  0.00  0.00    +0.035 C 
ATOM     13  C   LIG    1       18.683  39.827 207.876  0.00  0.00    +0.003 C 
ATOM     14  C   LIG    1       17.483  39.289 208.667  0.00  0.00    +0.000 C 
ATOM     15  C   LIG    1       17.942  38.605 209.961  0.00  0.00    +0.006 C 
ENDBRANCH   1   7
BRANCH   1  16
ATOM     16  C   LIG    1       23.686  42.371 210.284  0.00  0.00    +0.238 C 
ATOM     17  N   LIG    1       23.877  43.729 210.574  0.00  0.00    -0.267 N 
ATOM     18  O   LIG    1       23.827  41.997 209.133  0.00  0.00    -0.274 OA
BRANCH  17  19
ATOM     19  C   LIG    1       24.325  44.669 209.591  0.00  0.00    +0.010 C 
ATOM     20  C   LIG    1       25.723  45.238 209.788  0.00  0.00    +0.051 C 
ATOM     21  C   LIG    1       25.799  46.578 209.024  0.00  0.00    +0.006 C 
ATOM     22  C   LIG    1       25.399  46.294 207.563  0.00  0.00    +0.004 C 
ATOM     23  C   LIG    1       23.876  46.044 207.518  0.00  0.00    +0.029 C 
ATOM     24  C   LIG    1       23.515  45.009 208.569  0.00  0.00    -0.008 C 
ENDBRANCH  17  19
BRANCH  17  25
ATOM     25  C   LIG    1       23.657  44.262 211.934  0.00  0.00    +0.187 C 
BRANCH  25  26
ATOM     26  C   LIG    1       22.675  45.406 211.771  0.00  0.00    +0.122 A 
ATOM     27  O   LIG    1       21.377  45.168 211.436  0.00  0.00    -0.466 OA
ATOM     28  C   LIG    1       20.749  46.368 211.369  0.00  0.00    +0.195 A 
ATOM     29  C   LIG    1       21.627  47.354 211.656  0.00  0.00    +0.041 A 
ATOM     30  C   LIG    1       22.857  46.739 211.913  0.00  0.00    +0.046 A 
ENDBRANCH  25  26
ENDBRANCH  17  25
ENDBRANCH   1  16
TORSDOF 5
ENDMDL
MODEL 6
REMARK VINA RESULT:      -7.1     29.568     30.951
REMARK  Name = ZINC000006087397
REMARK                            x       y       z     vdW  Elec       q    Type
REMARK                         _______ _______ _______ _____ _____    ______ ____
ROOT
ATOM      1  C   LIG    1       38.319  20.927 192.983  0.00  0.00    +0.214 C 
ENDROOT
BRANCH   1   7
ATOM      2  C   LIG    1       42.448  23.099 194.270  0.00  0.00    +0.010 C 
ATOM      3  C   LIG    1       41.486  24.260 194.608  0.00  0.00    +0.018 C 
ATOM      4  C   LIG    1       40.011  23.769 194.771  0.00  0.00    +0.115 C 
ATOM      5  C   LIG    1       39.495  23.082 193.511  0.00  0.00    +0.247 C 
ATOM      6  O   LIG    1       39.448  23.491 192.365  0.00  0.00    -0.273 OA
ATOM      7  N   LIG    1       39.052  21.844 193.864  0.00  0.00    -0.215 N 
ATOM      8  C   LIG    1       39.266  21.626 195.199  0.00  0.00    +0.310 C 
ATOM      9  O   LIG    1       38.960  20.620 195.813  0.00  0.00    -0.252 OA
ATOM     10  N   LIG    1       39.884  22.693 195.745  0.00  0.00    -0.285 N 
ATOM     11  H   LIG    1       39.887  22.816 196.762  0.00  0.00    +0.151 HD
ATOM     12  C   LIG    1       39.067  24.939 195.149  0.00  0.00    +0.035 C 
ATOM     13  C   LIG    1       39.571  25.615 196.439  0.00  0.00    +0.003 C 
ATOM     14  C   LIG    1       41.018  26.105 196.285  0.00  0.00    +0.000 C 
ATOM     15  C   LIG    1       41.951  24.948 195.907  0.00  0.00    +0.006 C 
ENDBRANCH   1   7
BRANCH   1  16
ATOM     16  C   LIG    1       39.193  20.689 191.747  0.00  0.00    +0.238 C 
ATOM     17  N   LIG    1       38.691  20.781 190.442  0.00  0.00    -0.267 N 
ATOM     18  O   LIG    1       40.362  20.380 191.900  0.00  0.00    -0.274 OA
BRANCH  17  19
ATOM     19  C   LIG    1       39.522  20.624 189.286  0.00  0.00    +0.010 C 
ATOM     20  C   LIG    1       39.805  21.884 188.480  0.00  0.00    +0.051 C 
ATOM     21  C   LIG    1       40.193  21.452 187.049  0.00  0.00    +0.006 C 
ATOM     22  C   LIG    1       41.372  20.466 187.174  0.00  0.00    +0.004 C 
ATOM     23  C   LIG    1       40.828  19.129 187.721  0.00  0.00    +0.029 C 
ATOM     24  C   LIG    1       39.997  19.405 188.962  0.00  0.00    -0.008 C 
ENDBRANCH  17  19
BRANCH  17  25
ATOM     25  C   LIG    1       37.268  21.085 190.186  0.00  0.00    +0.187 C 
BRANCH  25  26
ATOM     26  C   LIG    1       36.703  19.852 189.508  0.00  0.00    +0.122 A 
ATOM     27  O   LIG    1       36.823  18.624 190.081  0.00  0.00    -0.466 OA
ATOM     28  C   LIG    1       36.224  17.730 189.255  0.00  0.00    +0.195 A 
ATOM     29  C   LIG    1       35.730  18.374 188.175  0.00  0.00    +0.041 A 
ATOM     30  C   LIG    1       36.035  19.729 188.337  0.00  0.00    +0.046 A 
ENDBRANCH  25  26
ENDBRANCH  17  25
ENDBRANCH   1  16
TORSDOF 5
ENDMDL
MODEL 7
REMARK VINA RESULT:      -7.1     29.613     31.342
REMARK  Name = ZINC000006087397
REMARK                            x       y       z     vdW  Elec       q    Type
REMARK                         _______ _______ _______ _____ _____    ______ ____
ROOT
ATOM      1  C   LIG    1       37.841  21.193 192.668  0.00  0.00    +0.214 C 
ENDROOT
BRANCH   1   7
ATOM      2  C   LIG    1       42.278  22.389 194.187  0.00  0.00    +0.010 C 
ATOM      3  C   LIG    1       41.563  23.702 194.575  0.00  0.00    +0.018 C 
ATOM      4  C   LIG    1       40.013  23.518 194.672  0.00  0.00    +0.115 C 
ATOM      5  C   LIG    1       39.413  23.026 193.359  0.00  0.00    +0.247 C 
ATOM      6  O   LIG    1       39.493  23.500 192.240  0.00  0.00    -0.273 OA
ATOM      7  N   LIG    1       38.715  21.887 193.622  0.00  0.00    -0.215 N 
ATOM      8  C   LIG    1       38.831  21.553 194.946  0.00  0.00    +0.310 C 
ATOM      9  O   LIG    1       38.304  20.599 195.486  0.00  0.00    -0.252 OA
ATOM     10  N   LIG    1       39.634  22.437 195.572  0.00  0.00    -0.285 N 
ATOM     11  H   LIG    1       39.625  22.498 196.595  0.00  0.00    +0.151 HD
ATOM     12  C   LIG    1       39.315  24.833 195.102  0.00  0.00    +0.035 C 
ATOM     13  C   LIG    1       39.901  25.316 196.443  0.00  0.00    +0.003 C 
ATOM     14  C   LIG    1       41.422  25.504 196.355  0.00  0.00    +0.000 C 
ATOM     15  C   LIG    1       42.112  24.203 195.926  0.00  0.00    +0.006 C 
ENDBRANCH   1   7
BRANCH   1  16
ATOM     16  C   LIG    1       38.701  20.156 191.938  0.00  0.00    +0.238 C 
ATOM     17  N   LIG    1       39.040  20.279 190.583  0.00  0.00    -0.267 N 
ATOM     18  O   LIG    1       39.083  19.171 192.546  0.00  0.00    -0.274 OA
BRANCH  17  19
ATOM     19  C   LIG    1       39.897  19.345 189.918  0.00  0.00    +0.010 C 
ATOM     20  C   LIG    1       39.287  17.993 189.574  0.00  0.00    +0.051 C 
ATOM     21  C   LIG    1       40.442  16.981 189.411  0.00  0.00    +0.006 C 
ATOM     22  C   LIG    1       41.409  17.558 188.358  0.00  0.00    +0.004 C 
ATOM     23  C   LIG    1       42.172  18.739 188.998  0.00  0.00    +0.029 C 
ATOM     24  C   LIG    1       41.171  19.684 189.640  0.00  0.00    -0.008 C 
ENDBRANCH  17  19
BRANCH  17  25
ATOM     25  C   LIG    1       38.554  21.413 189.771  0.00  0.00    +0.187 C 
BRANCH  25  26
ATOM     26  C   LIG    1       37.401  20.864 188.952  0.00  0.00    +0.122 A 
ATOM     27  O   LIG    1       37.468  20.822 187.593  0.00  0.00    -0.466 OA
ATOM     28  C   LIG    1       36.306  20.282 187.146  0.00  0.00    +0.195 A 
ATOM     29  C   LIG    1       35.513  19.984 188.199  0.00  0.00    +0.041 A 
ATOM     30  C   LIG    1       36.212  20.354 189.352  0.00  0.00    +0.046 A 
ENDBRANCH  25  26
ENDBRANCH  17  25
ENDBRANCH   1  16
TORSDOF 5
ENDMDL
MODEL 8
REMARK VINA RESULT:      -7.0     25.288     27.897
REMARK  Name = ZINC000006087397
REMARK                            x       y       z     vdW  Elec       q    Type
REMARK                         _______ _______ _______ _____ _____    ______ ____
ROOT
ATOM      1  C   LIG    1       23.158  41.447 209.242  0.00  0.00    +0.214 C 
ENDROOT
BRANCH   1   7
ATOM      2  C   LIG    1       20.615  40.356 213.212  0.00  0.00    +0.010 C 
ATOM      3  C   LIG    1       19.527  40.022 212.168  0.00  0.00    +0.018 C 
ATOM      4  C   LIG    1       20.132  39.797 210.744  0.00  0.00    +0.115 C 
ATOM      5  C   LIG    1       20.898  41.019 210.250  0.00  0.00    +0.247 C 
ATOM      6  O   LIG    1       20.531  42.175 210.136  0.00  0.00    -0.273 OA
ATOM      7  N   LIG    1       22.157  40.618 209.922  0.00  0.00    -0.215 N 
ATOM      8  C   LIG    1       22.314  39.283 210.193  0.00  0.00    +0.310 C 
ATOM      9  O   LIG    1       23.322  38.632 209.989  0.00  0.00    -0.252 OA
ATOM     10  N   LIG    1       21.184  38.790 210.736  0.00  0.00    -0.285 N 
ATOM     11  H   LIG    1       21.029  37.776 210.758  0.00  0.00    +0.151 HD
ATOM     12  C   LIG    1       19.032  39.423 209.717  0.00  0.00    +0.035 C 
ATOM     13  C   LIG    1       18.276  38.171 210.202  0.00  0.00    +0.003 C 
ATOM     14  C   LIG    1       17.675  38.384 211.597  0.00  0.00    +0.000 C 
ATOM     15  C   LIG    1       18.762  38.758 212.612  0.00  0.00    +0.006 C 
ENDBRANCH   1   7
BRANCH   1  16
ATOM     16  C   LIG    1       24.000  42.125 210.329  0.00  0.00    +0.238 C 
ATOM     17  N   LIG    1       25.099  42.941 210.029  0.00  0.00    -0.267 N 
ATOM     18  O   LIG    1       23.724  41.926 211.499  0.00  0.00    -0.274 OA
BRANCH  17  19
ATOM     19  C   LIG    1       25.845  43.627 211.041  0.00  0.00    +0.010 C 
ATOM     20  C   LIG    1       25.192  44.864 211.642  0.00  0.00    +0.051 C 
ATOM     21  C   LIG    1       26.310  45.745 212.240  0.00  0.00    +0.006 C 
ATOM     22  C   LIG    1       27.102  44.867 213.230  0.00  0.00    +0.004 C 
ATOM     23  C   LIG    1       27.952  43.867 212.417  0.00  0.00    +0.029 C 
ATOM     24  C   LIG    1       27.060  43.170 211.404  0.00  0.00    -0.008 C 
ENDBRANCH  17  19
BRANCH  17  25
ATOM     25  C   LIG    1       25.528  43.169 208.634  0.00  0.00    +0.187 C 
BRANCH  25  26
ATOM     26  C   LIG    1       24.989  44.537 208.261  0.00  0.00    +0.122 A 
ATOM     27  O   LIG    1       23.649  44.761 208.180  0.00  0.00    -0.466 OA
ATOM     28  C   LIG    1       23.474  46.061 207.835  0.00  0.00    +0.195 A 
ATOM     29  C   LIG    1       24.679  46.658 207.700  0.00  0.00    +0.041 A 
ATOM     30  C   LIG    1       25.646  45.685 207.972  0.00  0.00    +0.046 A 
ENDBRANCH  25  26
ENDBRANCH  17  25
ENDBRANCH   1  16
TORSDOF 5
ENDMDL
MODEL 9
REMARK VINA RESULT:      -7.0     29.656     31.688
REMARK  Name = ZINC000006087397
REMARK                            x       y       z     vdW  Elec       q    Type
REMARK                         _______ _______ _______ _____ _____    ______ ____
ROOT
ATOM      1  C   LIG    1       38.346  22.300 192.853  0.00  0.00    +0.214 C 
ENDROOT
BRANCH   1   7
ATOM      2  C   LIG    1       38.940  17.995 190.723  0.00  0.00    +0.010 C 
ATOM      3  C   LIG    1       37.695  18.451 189.929  0.00  0.00    +0.018 C 
ATOM      4  C   LIG    1       37.489  19.999 190.005  0.00  0.00    +0.115 C 
ATOM      5  C   LIG    1       37.334  20.486 191.442  0.00  0.00    +0.247 C 
ATOM      6  O   LIG    1       36.549  20.132 192.303  0.00  0.00    -0.273 OA
ATOM      7  N   LIG    1       38.269  21.451 191.658  0.00  0.00    -0.215 N 
ATOM      8  C   LIG    1       39.048  21.616 190.542  0.00  0.00    +0.310 C 
ATOM      9  O   LIG    1       39.955  22.418 190.422  0.00  0.00    -0.252 OA
ATOM     10  N   LIG    1       38.671  20.742 189.587  0.00  0.00    -0.285 N 
ATOM     11  H   LIG    1       38.958  20.894 188.615  0.00  0.00    +0.151 HD
ATOM     12  C   LIG    1       36.261  20.445 189.170  0.00  0.00    +0.035 C 
ATOM     13  C   LIG    1       36.431  19.979 187.711  0.00  0.00    +0.003 C 
ATOM     14  C   LIG    1       36.629  18.460 187.627  0.00  0.00    +0.000 C 
ATOM     15  C   LIG    1       37.842  18.018 188.457  0.00  0.00    +0.006 C 
ENDBRANCH   1   7
BRANCH   1  16
ATOM     16  C   LIG    1       39.456  21.731 193.742  0.00  0.00    +0.238 C 
ATOM     17  N   LIG    1       40.586  22.477 194.104  0.00  0.00    -0.267 N 
ATOM     18  O   LIG    1       39.372  20.579 194.129  0.00  0.00    -0.274 OA
BRANCH  17  19
ATOM     19  C   LIG    1       41.592  21.969 194.988  0.00  0.00    +0.010 C 
ATOM     20  C   LIG    1       41.199  21.833 196.452  0.00  0.00    +0.051 C 
ATOM     21  C   LIG    1       42.495  21.834 197.291  0.00  0.00    +0.006 C 
ATOM     22  C   LIG    1       43.397  20.712 196.740  0.00  0.00    +0.004 C 
ATOM     23  C   LIG    1       43.958  21.169 195.376  0.00  0.00    +0.029 C 
ATOM     24  C   LIG    1       42.810  21.650 194.506  0.00  0.00    -0.008 C 
ENDBRANCH  17  19
BRANCH  17  25
ATOM     25  C   LIG    1       40.784  23.857 193.615  0.00  0.00    +0.187 C 
BRANCH  25  26
ATOM     26  C   LIG    1       40.564  24.752 194.820  0.00  0.00    +0.122 A 
ATOM     27  O   LIG    1       39.365  24.773 195.464  0.00  0.00    -0.466 OA
ATOM     28  C   LIG    1       39.471  25.652 196.491  0.00  0.00    +0.195 A 
ATOM     29  C   LIG    1       40.714  26.182 196.506  0.00  0.00    +0.041 A 
ATOM     30  C   LIG    1       41.412  25.606 195.439  0.00  0.00    +0.046 A 
ENDBRANCH  25  26
ENDBRANCH  17  25
ENDBRANCH   1  16
TORSDOF 5
ENDMDL
