REMARK VINA RESULT:      -6.5      2.829      5.904
REMARK  Name = ZINC000006082796
REMARK                            x       y       z     vdW  Elec       q    Type
REMARK                         _______ _______ _______ _____ _____    ______ ____
ROOT
ATOM      1  N   LIG    1       25.952  42.699 182.844  0.00  0.00    -0.306 N 
ENDROOT
BRANCH   1   2
ATOM      2  C   LIG    1       25.210  41.931 181.960  0.00  0.00    +0.133 A 
ATOM      3  C   LIG    1       23.996  42.377 181.385  0.00  0.00    +0.051 A 
ATOM      4  C   LIG    1       23.271  43.606 181.467  0.00  0.00    -0.025 A 
ATOM      5  C   LIG    1       23.712  44.832 182.249  0.00  0.00    +0.037 C 
ATOM      6  C   LIG    1       22.878  46.040 181.789  0.00  0.00    +0.005 C 
ATOM      7  C   LIG    1       21.379  45.704 181.733  0.00  0.00    +0.005 C 
ATOM      8  C   LIG    1       21.090  44.683 180.620  0.00  0.00    +0.043 C 
ATOM      9  C   LIG    1       22.102  43.567 180.763  0.00  0.00    -0.004 A 
ATOM     10  S   LIG    1       21.860  42.056 179.948  0.00  0.00    -0.073 S 
ATOM     11  C   LIG    1       23.358  41.456 180.571  0.00  0.00    +0.114 A 
ATOM     12  N   LIG    1       23.867  40.232 180.292  0.00  0.00    -0.228 NA
ATOM     13  C   LIG    1       25.016  39.928 180.844  0.00  0.00    +0.224 A 
ATOM     14  N   LIG    1       25.708  40.744 181.673  0.00  0.00    -0.220 NA
ENDBRANCH   1   2
BRANCH   1  16
ATOM     15  C   LIG    1       24.952  42.689 185.018  0.00  0.00    +0.024 C 
ATOM     16  C   LIG    1       26.101  42.105 184.193  0.00  0.00    +0.104 C 
ENDBRANCH   1  16
BRANCH   1  17
ATOM     17  C   LIG    1       27.276  43.110 182.247  0.00  0.00    +0.202 C 
BRANCH  17  18
ATOM     18  C   LIG    1       27.542  44.604 182.467  0.00  0.00    +0.231 C 
ATOM     19  N   LIG    1       28.617  45.124 181.879  0.00  0.00    -0.309 N 
ATOM     20  H   LIG    1       29.097  44.523 181.225  0.00  0.00    +0.149 HD
ATOM     21  O   LIG    1       26.802  45.311 183.143  0.00  0.00    -0.274 OA
BRANCH  19  22
ATOM     22  C   LIG    1       28.971  46.527 181.944  0.00  0.00    +0.146 C 
BRANCH  22  23
ATOM     23  C   LIG    1       29.468  46.829 180.550  0.00  0.00    +0.007 A 
ATOM     24  S   LIG    1       28.357  47.138 179.258  0.00  0.00    -0.100 S 
ATOM     25  C   LIG    1       29.662  47.361 178.148  0.00  0.00    +0.045 A 
ATOM     26  C   LIG    1       30.875  47.197 178.752  0.00  0.00    +0.008 A 
ATOM     27  C   LIG    1       30.764  46.892 180.119  0.00  0.00    +0.013 A 
ENDBRANCH  22  23
ENDBRANCH  19  22
ENDBRANCH  17  18
ENDBRANCH   1  17
TORSDOF 6
