REMARK VINA RESULT:     -10.1     27.260     28.158
REMARK  Name = ZINC000049410302
REMARK                            x       y       z     vdW  Elec       q    Type
REMARK                         _______ _______ _______ _____ _____    ______ ____
ROOT
ATOM      1  C   LIG    1       24.381  42.422 186.495  0.00  0.00    +0.314 A 
ATOM      2  O   LIG    1       25.030  41.275 186.605  0.00  0.00    -0.328 OA
ATOM      3  N   LIG    1       25.892  41.194 185.620  0.00  0.00    -0.054 NA
ATOM      4  C   LIG    1       25.748  42.284 184.938  0.00  0.00    +0.224 A 
ATOM      5  N   LIG    1       24.795  43.086 185.467  0.00  0.00    -0.182 NA
ENDROOT
BRANCH   4   6
ATOM      6  C   LIG    1       26.527  42.602 183.737  0.00  0.00    +0.153 A 
ATOM      7  N   LIG    1       27.285  41.709 183.039  0.00  0.00    -0.126 NA
ATOM      8  N   LIG    1       27.832  42.345 182.037  0.00  0.00    -0.060 NA
ATOM      9  N   LIG    1       27.434  43.634 182.083  0.00  0.00    -0.219 N 
ATOM     10  C   LIG    1       26.626  43.810 183.132  0.00  0.00    +0.148 A 
BRANCH   9  11
ATOM     11  C   LIG    1       27.844  44.638 181.131  0.00  0.00    +0.068 A 
ATOM     12  C   LIG    1       28.821  45.569 181.489  0.00  0.00    +0.047 A 
ATOM     13  C   LIG    1       29.209  46.526 180.552  0.00  0.00    +0.043 A 
ATOM     14 CL   LIG    1       30.422  47.692 180.966  0.00  0.00    -0.083 Cl
ATOM     15  C   LIG    1       28.624  46.552 179.282  0.00  0.00    +0.020 A 
ATOM     16  C   LIG    1       27.647  45.618 178.942  0.00  0.00    +0.003 A 
ATOM     17  C   LIG    1       27.249  44.655 179.865  0.00  0.00    +0.028 A 
ENDBRANCH   9  11
ENDBRANCH   4   6
BRANCH   1  20
ATOM     18  N   LIG    1       23.699  43.716 188.425  0.00  0.00    -0.278 N 
ATOM     19  H   LIG    1       24.646  44.104 188.307  0.00  0.00    +0.155 HD
ATOM     20  C   LIG    1       23.347  42.784 187.463  0.00  0.00    +0.306 C 
ATOM     21  O   LIG    1       22.207  42.325 187.452  0.00  0.00    -0.265 OA
BRANCH  18  26
ATOM     22  C   LIG    1       20.443  46.010 192.521  0.00  0.00    +0.044 C 
ATOM     23  C   LIG    1       21.308  45.387 191.448  0.00  0.00    -0.050 A 
ATOM     24  C   LIG    1       21.155  45.764 190.113  0.00  0.00    +0.005 A 
ATOM     25  C   LIG    1       21.952  45.197 189.125  0.00  0.00    +0.023 A 
ATOM     26  C   LIG    1       22.909  44.245 189.473  0.00  0.00    +0.034 A 
ATOM     27  C   LIG    1       23.081  43.869 190.807  0.00  0.00    +0.023 A 
ATOM     28  C   LIG    1       22.277  44.441 191.788  0.00  0.00    +0.005 A 
ENDBRANCH  18  26
ENDBRANCH   1  20
TORSDOF 4
