REMARK VINA RESULT:      -7.1     27.058     29.402
REMARK  Name = ZINC000006087402
REMARK                            x       y       z     vdW  Elec       q    Type
REMARK                         _______ _______ _______ _____ _____    ______ ____
ROOT
ATOM      1  C   LIG    1       19.545  40.426 210.011  0.00  0.00    +0.214 C 
ENDROOT
BRANCH   1   7
ATOM      2  C   LIG    1       14.623  37.708 208.516  0.00  0.00    +0.010 C 
ATOM      3  C   LIG    1       15.593  38.057 209.671  0.00  0.00    +0.018 C 
ATOM      4  C   LIG    1       17.076  37.682 209.334  0.00  0.00    +0.115 C 
ATOM      5  C   LIG    1       18.054  38.428 210.249  0.00  0.00    +0.247 C 
ATOM      6  O   LIG    1       18.269  38.322 211.444  0.00  0.00    -0.273 OA
ATOM      7  N   LIG    1       18.727  39.329 209.485  0.00  0.00    -0.215 N 
ATOM      8  C   LIG    1       18.325  39.246 208.183  0.00  0.00    +0.310 C 
ATOM      9  O   LIG    1       18.688  39.985 207.286  0.00  0.00    -0.252 OA
ATOM     10  N   LIG    1       17.449  38.233 208.038  0.00  0.00    -0.285 N 
ATOM     11  H   LIG    1       16.830  38.228 207.221  0.00  0.00    +0.151 HD
ATOM     12  C   LIG    1       17.332  36.152 209.300  0.00  0.00    +0.035 C 
ATOM     13  C   LIG    1       16.872  35.514 210.625  0.00  0.00    +0.003 C 
ATOM     14  C   LIG    1       15.403  35.828 210.935  0.00  0.00    +0.000 C 
ATOM     15  C   LIG    1       15.166  37.346 210.972  0.00  0.00    +0.006 C 
ENDBRANCH   1   7
BRANCH   1  16
ATOM     16  C   LIG    1       21.017  40.028 209.881  0.00  0.00    +0.238 C 
ATOM     17  N   LIG    1       21.743  39.746 211.028  0.00  0.00    -0.267 N 
ATOM     18  O   LIG    1       21.584  39.954 208.797  0.00  0.00    -0.274 OA
BRANCH  17  19
ATOM     19  C   LIG    1       21.225  39.972 212.330  0.00  0.00    +0.010 C 
ATOM     20  C   LIG    1       20.946  41.424 212.683  0.00  0.00    +0.051 C 
ATOM     21  C   LIG    1       20.841  41.525 214.220  0.00  0.00    +0.006 C 
ATOM     22  C   LIG    1       19.806  40.482 214.688  0.00  0.00    +0.004 C 
ATOM     23  C   LIG    1       20.445  39.081 214.557  0.00  0.00    +0.029 C 
ATOM     24  C   LIG    1       20.982  38.929 213.146  0.00  0.00    -0.008 C 
ENDBRANCH  17  19
BRANCH  17  25
ATOM     25  C   LIG    1       23.144  39.295 210.903  0.00  0.00    +0.187 C 
BRANCH  25  26
ATOM     26  C   LIG    1       23.988  40.429 211.448  0.00  0.00    +0.122 A 
ATOM     27  O   LIG    1       23.995  41.644 210.834  0.00  0.00    -0.466 OA
ATOM     28  C   LIG    1       24.840  42.445 211.532  0.00  0.00    +0.195 A 
ATOM     29  C   LIG    1       25.361  41.755 212.570  0.00  0.00    +0.041 A 
ATOM     30  C   LIG    1       24.818  40.467 212.517  0.00  0.00    +0.046 A 
ENDBRANCH  25  26
ENDBRANCH  17  25
ENDBRANCH   1  16
TORSDOF 5
