REMARK VINA RESULT:      -7.3      3.925      6.569
REMARK  Name = ZINC000000538650
REMARK                            x       y       z     vdW  Elec       q    Type
REMARK                         _______ _______ _______ _____ _____    ______ ____
ROOT
ATOM      1  C   LIG    1       22.200  43.653 210.171  0.00  0.00    +0.076 A 
ATOM      2  N   LIG    1       23.202  44.325 209.445  0.00  0.00    -0.213 N 
ATOM      3  N   LIG    1       24.106  43.781 208.576  0.00  0.00    -0.172 NA
ATOM      4  C   LIG    1       24.810  44.796 208.151  0.00  0.00    +0.148 A 
ATOM      5  C   LIG    1       24.409  46.002 208.721  0.00  0.00    +0.087 A 
ATOM      6  C   LIG    1       23.359  45.692 209.554  0.00  0.00    +0.167 A 
ATOM      7  N   LIG    1       22.528  46.461 210.358  0.00  0.00    -0.235 NA
ATOM      8  C   LIG    1       21.595  45.864 211.031  0.00  0.00    +0.115 A 
ATOM      9  C   LIG    1       21.408  44.455 210.964  0.00  0.00    +0.048 A 
ENDROOT
BRANCH   1  12
ATOM     10  C   LIG    1       20.748  40.199 209.752  0.00  0.00    +0.037 A 
ATOM     11  C   LIG    1       20.837  41.589 209.820  0.00  0.00    +0.033 A 
ATOM     12  C   LIG    1       22.073  42.205 210.050  0.00  0.00    +0.002 A 
ATOM     13  C   LIG    1       23.212  41.397 210.199  0.00  0.00    +0.010 A 
ATOM     14  C   LIG    1       23.118  40.010 210.123  0.00  0.00    +0.002 A 
ATOM     15  C   LIG    1       21.886  39.404 209.903  0.00  0.00    +0.023 A 
BRANCH  10  18
ATOM     16  C   LIG    1       17.358  39.205 208.260  0.00  0.00    +0.109 C 
ATOM     17  C   LIG    1       18.724  39.833 208.406  0.00  0.00    +0.216 C 
ATOM     18  N   LIG    1       19.476  39.591 209.552  0.00  0.00    -0.275 N 
ATOM     19  C   LIG    1       18.961  38.732 210.635  0.00  0.00    +0.138 C 
ATOM     20  O   LIG    1       19.162  40.547 207.528  0.00  0.00    -0.276 OA
ENDBRANCH  10  18
ENDBRANCH   1  12
BRANCH   5  21
ATOM     21  C   LIG    1       24.998  47.285 208.416  0.00  0.00    +0.205 C 
ATOM     22  O   LIG    1       24.971  47.661 207.244  0.00  0.00    -0.286 OA
BRANCH  21  23
ATOM     23  C   LIG    1       25.655  48.131 209.402  0.00  0.00    +0.060 A 
ATOM     24  S   LIG    1       26.392  47.441 210.819  0.00  0.00    -0.093 S 
ATOM     25  C   LIG    1       26.856  48.997 211.394  0.00  0.00    +0.046 A 
ATOM     26  C   LIG    1       26.459  49.992 210.544  0.00  0.00    +0.008 A 
ATOM     27  C   LIG    1       25.778  49.507 209.422  0.00  0.00    +0.019 A 
ENDBRANCH  21  23
ENDBRANCH   5  21
TORSDOF 4
