REMARK VINA RESULT:      -8.4      2.018      2.728
REMARK  Name = ZINC000186872603
REMARK                            x       y       z     vdW  Elec       q    Type
REMARK                         _______ _______ _______ _____ _____    ______ ____
ROOT
ATOM      1  N   LIG    1       24.763  44.674 182.997  0.00  0.00    -0.297 N 
ATOM      2  C   LIG    1       25.928  43.750 182.958  0.00  0.00    +0.123 C 
ATOM      3  C   LIG    1       25.407  42.303 183.150  0.00  0.00    +0.103 C 
ATOM      4  N   LIG    1       24.676  42.174 184.444  0.00  0.00    -0.299 NA
ATOM      5  C   LIG    1       23.505  43.107 184.443  0.00  0.00    +0.103 C 
ATOM      6  C   LIG    1       23.947  44.582 184.236  0.00  0.00    +0.123 C 
ENDROOT
BRANCH   1  10
ATOM      7  C   LIG    1       23.199  49.161 182.585  0.00  0.00    +0.066 C 
ATOM      8  C   LIG    1       24.132  48.058 182.150  0.00  0.00    +0.044 A 
ATOM      9  N   LIG    1       24.037  46.886 182.742  0.00  0.00    -0.220 NA
ATOM     10  C   LIG    1       24.866  45.905 182.364  0.00  0.00    +0.218 A 
ATOM     11  N   LIG    1       25.791  46.047 181.407  0.00  0.00    -0.219 NA
ATOM     12  C   LIG    1       25.912  47.214 180.796  0.00  0.00    +0.049 A 
ATOM     13  C   LIG    1       25.077  48.261 181.156  0.00  0.00    +0.046 A 
BRANCH  12  14
ATOM     14  C   LIG    1       26.964  47.395 179.706  0.00  0.00    +0.032 C 
ATOM     15  C   LIG    1       26.322  47.131 178.335  0.00  0.00    +0.014 C 
ATOM     16  C   LIG    1       28.127  46.423 179.958  0.00  0.00    +0.014 C 
ENDBRANCH  12  14
ENDBRANCH   1  10
BRANCH   4  17
ATOM     17  C   LIG    1       25.568  42.304 185.615  0.00  0.00    +0.085 C 
BRANCH  17  18
ATOM     18  C   LIG    1       24.762  41.723 186.791  0.00  0.00    +0.025 C 
BRANCH  18  19
ATOM     19  C   LIG    1       25.298  42.332 188.101  0.00  0.00    +0.097 C 
BRANCH  19  20
ATOM     20  C   LIG    1       24.150  43.004 188.826  0.00  0.00    +0.197 A 
ATOM     21  O   LIG    1       24.267  43.253 190.158  0.00  0.00    -0.440 OA
ATOM     22  C   LIG    1       23.119  43.847 190.496  0.00  0.00    +0.155 A 
ATOM     23  C   LIG    1       22.699  44.320 191.737  0.00  0.00    +0.048 A 
ATOM     24  C   LIG    1       21.440  44.906 191.811  0.00  0.00    +0.004 A 
ATOM     25  C   LIG    1       20.632  45.007 190.659  0.00  0.00    +0.002 A 
ATOM     26  C   LIG    1       21.082  44.524 189.432  0.00  0.00    +0.031 A 
ATOM     27  C   LIG    1       22.349  43.938 189.362  0.00  0.00    +0.110 A 
ATOM     28  N   LIG    1       23.043  43.389 188.310  0.00  0.00    -0.213 NA
ENDBRANCH  19  20
ENDBRANCH  18  19
ENDBRANCH  17  18
ENDBRANCH   4  17
TORSDOF 6
