REMARK VINA RESULT:      -6.8     26.441     28.189
REMARK  Name = ZINC000006084756
REMARK                            x       y       z     vdW  Elec       q    Type
REMARK                         _______ _______ _______ _____ _____    ______ ____
ROOT
ATOM      1  C   LIG    1       26.215  16.082 194.584  0.00  0.00    +0.125 C 
ENDROOT
BRANCH   1   2
ATOM      2  N   LIG    1       27.182  15.609 193.566  0.00  0.00    -0.336 N 
ATOM      3  H   LIG    1       26.755  15.040 192.818  0.00  0.00    +0.147 HD
BRANCH   2   4
ATOM      4  C   LIG    1       28.212  16.438 193.124  0.00  0.00    +0.079 C 
ATOM      5  S   LIG    1       28.197  17.029 191.549  0.00  0.00    -0.035 S 
BRANCH   4   6
ATOM      6  C   LIG    1       29.255  16.742 194.110  0.00  0.00    +0.003 A 
ATOM      7  C   LIG    1       30.339  15.868 194.278  0.00  0.00    +0.012 A 
ATOM      8  C   LIG    1       31.335  16.137 195.208  0.00  0.00    +0.024 A 
ATOM      9  C   LIG    1       31.261  17.293 195.988  0.00  0.00    +0.033 A 
ATOM     10  C   LIG    1       30.182  18.170 195.846  0.00  0.00    +0.024 A 
ATOM     11  C   LIG    1       29.190  17.896 194.912  0.00  0.00    +0.012 A 
BRANCH   9  12
ATOM     12  N   LIG    1       32.301  17.498 196.926  0.00  0.00    -0.286 N 
ATOM     13  H   LIG    1       32.211  17.006 197.821  0.00  0.00    +0.155 HD
ATOM     14  C   LIG    1       33.450  18.229 196.774  0.00  0.00    +0.214 C 
ATOM     15  O   LIG    1       33.718  18.788 195.735  0.00  0.00    -0.276 OA
ATOM     16  C   LIG    1       34.366  18.271 197.966  0.00  0.00    +0.109 C 
ENDBRANCH   9  12
ENDBRANCH   4   6
ENDBRANCH   2   4
ENDBRANCH   1   2
BRANCH   1  17
ATOM     17  C   LIG    1       26.188  15.040 195.744  0.00  0.00    +0.104 C 
BRANCH  17  21
ATOM     18  C   LIG    1       29.088  16.119 198.763  0.00  0.00    +0.120 A 
ATOM     19  C   LIG    1       27.962  16.917 198.600  0.00  0.00    +0.046 A 
ATOM     20  C   LIG    1       27.009  16.576 197.647  0.00  0.00    +0.009 A 
ATOM     21  C   LIG    1       27.176  15.437 196.847  0.00  0.00    -0.029 A 
ATOM     22  C   LIG    1       28.303  14.634 197.043  0.00  0.00    +0.009 A 
ATOM     23  C   LIG    1       29.261  14.970 197.993  0.00  0.00    +0.046 A 
BRANCH  18  25
ATOM     24  C   LIG    1       30.335  17.891 200.014  0.00  0.00    +0.277 C 
ATOM     25  O   LIG    1       30.008  16.515 199.707  0.00  0.00    -0.495 OA
ENDBRANCH  18  25
ENDBRANCH  17  21
BRANCH  17  26
ATOM     26  N   LIG    1       24.831  14.878 196.343  0.00  0.00    -0.294 NA
ATOM     27  C   LIG    1       24.403  13.474 196.482  0.00  0.00    +0.085 C 
ATOM     28  C   LIG    1       22.956  13.492 195.980  0.00  0.00    +0.017 C 
ATOM     29  C   LIG    1       22.524  14.927 196.264  0.00  0.00    +0.017 C 
ATOM     30  C   LIG    1       23.749  15.700 195.788  0.00  0.00    +0.085 C 
ENDBRANCH  17  26
ENDBRANCH   1  17
TORSDOF 8
