MODEL 1
REMARK VINA RESULT:      -6.7      0.000      0.000
REMARK  Name = ZINC000006082796
REMARK                            x       y       z     vdW  Elec       q    Type
REMARK                         _______ _______ _______ _____ _____    ______ ____
ROOT
ATOM      1  N   LIG    1       26.692  44.131 180.663  0.00  0.00    -0.306 N 
ENDROOT
BRANCH   1   2
ATOM      2  C   LIG    1       25.498  44.777 180.948  0.00  0.00    +0.133 A 
ATOM      3  C   LIG    1       24.243  44.122 180.920  0.00  0.00    +0.051 A 
ATOM      4  C   LIG    1       23.855  42.767 180.681  0.00  0.00    -0.025 A 
ATOM      5  C   LIG    1       24.810  41.618 180.407  0.00  0.00    +0.037 C 
ATOM      6  C   LIG    1       24.050  40.291 180.579  0.00  0.00    +0.005 C 
ATOM      7  C   LIG    1       22.698  40.314 179.848  0.00  0.00    +0.005 C 
ATOM      8  C   LIG    1       21.736  41.312 180.513  0.00  0.00    +0.043 C 
ATOM      9  C   LIG    1       22.500  42.603 180.714  0.00  0.00    -0.004 A 
ATOM     10  S   LIG    1       21.655  44.074 181.071  0.00  0.00    -0.073 S 
ATOM     11  C   LIG    1       23.150  44.935 181.173  0.00  0.00    +0.114 A 
ATOM     12  N   LIG    1       23.258  46.251 181.477  0.00  0.00    -0.228 NA
ATOM     13  C   LIG    1       24.467  46.754 181.514  0.00  0.00    +0.224 A 
ATOM     14  N   LIG    1       25.596  46.055 181.259  0.00  0.00    -0.220 NA
ENDBRANCH   1   2
BRANCH   1  16
ATOM     15  C   LIG    1       26.698  43.937 178.278  0.00  0.00    +0.024 C 
ATOM     16  C   LIG    1       27.385  44.634 179.454  0.00  0.00    +0.104 C 
ENDBRANCH   1  16
BRANCH   1  17
ATOM     17  C   LIG    1       27.599  44.083 181.868  0.00  0.00    +0.202 C 
BRANCH  17  18
ATOM     18  C   LIG    1       27.406  42.780 182.654  0.00  0.00    +0.231 C 
ATOM     19  N   LIG    1       26.519  42.794 183.647  0.00  0.00    -0.309 N 
ATOM     20  H   LIG    1       25.947  43.622 183.716  0.00  0.00    +0.149 HD
ATOM     21  O   LIG    1       28.024  41.754 182.388  0.00  0.00    -0.274 OA
BRANCH  19  22
ATOM     22  C   LIG    1       26.184  41.631 184.442  0.00  0.00    +0.146 C 
BRANCH  22  23
ATOM     23  C   LIG    1       25.080  42.129 185.345  0.00  0.00    +0.007 A 
ATOM     24  S   LIG    1       24.003  43.381 184.825  0.00  0.00    -0.100 S 
ATOM     25  C   LIG    1       23.157  43.323 186.330  0.00  0.00    +0.045 A 
ATOM     26  C   LIG    1       23.689  42.392 187.174  0.00  0.00    +0.008 A 
ATOM     27  C   LIG    1       24.786  41.714 186.614  0.00  0.00    +0.013 A 
ENDBRANCH  22  23
ENDBRANCH  19  22
ENDBRANCH  17  18
ENDBRANCH   1  17
TORSDOF 6
ENDMDL
MODEL 2
REMARK VINA RESULT:      -6.6      3.754      5.987
REMARK  Name = ZINC000006082796
REMARK                            x       y       z     vdW  Elec       q    Type
REMARK                         _______ _______ _______ _____ _____    ______ ____
ROOT
ATOM      1  N   LIG    1       22.820  45.795 184.084  0.00  0.00    -0.306 N 
ENDROOT
BRANCH   1   2
ATOM      2  C   LIG    1       23.448  44.627 184.487  0.00  0.00    +0.133 A 
ATOM      3  C   LIG    1       24.623  44.132 183.870  0.00  0.00    +0.051 A 
ATOM      4  C   LIG    1       25.459  44.630 182.824  0.00  0.00    -0.025 A 
ATOM      5  C   LIG    1       25.258  45.947 182.094  0.00  0.00    +0.037 C 
ATOM      6  C   LIG    1       26.547  46.291 181.326  0.00  0.00    +0.005 C 
ATOM      7  C   LIG    1       27.070  45.083 180.532  0.00  0.00    +0.005 C 
ATOM      8  C   LIG    1       27.559  43.976 181.482  0.00  0.00    +0.043 C 
ATOM      9  C   LIG    1       26.481  43.775 182.526  0.00  0.00    -0.004 A 
ATOM     10  S   LIG    1       26.486  42.360 183.527  0.00  0.00    -0.073 S 
ATOM     11  C   LIG    1       25.080  42.920 184.363  0.00  0.00    +0.114 A 
ATOM     12  N   LIG    1       24.489  42.266 185.392  0.00  0.00    -0.228 NA
ATOM     13  C   LIG    1       23.428  42.826 185.919  0.00  0.00    +0.224 A 
ATOM     14  N   LIG    1       22.887  43.992 185.498  0.00  0.00    -0.220 NA
ENDBRANCH   1   2
BRANCH   1  16
ATOM     15  C   LIG    1       21.291  46.477 182.374  0.00  0.00    +0.024 C 
ATOM     16  C   LIG    1       21.422  45.612 183.630  0.00  0.00    +0.104 C 
ENDBRANCH   1  16
BRANCH   1  17
ATOM     17  C   LIG    1       22.951  46.883 185.122  0.00  0.00    +0.202 C 
BRANCH  17  18
ATOM     18  C   LIG    1       21.841  46.779 186.175  0.00  0.00    +0.231 C 
ATOM     19  N   LIG    1       22.163  46.234 187.346  0.00  0.00    -0.309 N 
ATOM     20  H   LIG    1       23.145  46.056 187.495  0.00  0.00    +0.149 HD
ATOM     21  O   LIG    1       20.701  47.185 185.972  0.00  0.00    -0.274 OA
BRANCH  19  22
ATOM     22  C   LIG    1       21.243  46.117 188.459  0.00  0.00    +0.146 C 
BRANCH  22  23
ATOM     23  C   LIG    1       21.995  45.257 189.447  0.00  0.00    +0.007 A 
ATOM     24  S   LIG    1       21.428  45.069 191.072  0.00  0.00    -0.100 S 
ATOM     25  C   LIG    1       22.758  44.032 191.450  0.00  0.00    +0.045 A 
ATOM     26  C   LIG    1       23.583  43.856 190.377  0.00  0.00    +0.008 A 
ATOM     27  C   LIG    1       23.150  44.555 189.237  0.00  0.00    +0.013 A 
ENDBRANCH  22  23
ENDBRANCH  19  22
ENDBRANCH  17  18
ENDBRANCH   1  17
TORSDOF 6
ENDMDL
MODEL 3
REMARK VINA RESULT:      -6.6      5.528      7.520
REMARK  Name = ZINC000006082796
REMARK                            x       y       z     vdW  Elec       q    Type
REMARK                         _______ _______ _______ _____ _____    ______ ____
ROOT
ATOM      1  N   LIG    1       22.242  46.982 184.519  0.00  0.00    -0.306 N 
ENDROOT
BRANCH   1   2
ATOM      2  C   LIG    1       22.577  48.320 184.664  0.00  0.00    +0.133 A 
ATOM      3  C   LIG    1       21.729  49.374 184.248  0.00  0.00    +0.051 A 
ATOM      4  C   LIG    1       20.418  49.406 183.679  0.00  0.00    -0.025 A 
ATOM      5  C   LIG    1       19.556  48.187 183.399  0.00  0.00    +0.037 C 
ATOM      6  C   LIG    1       18.109  48.649 183.151  0.00  0.00    +0.005 C 
ATOM      7  C   LIG    1       18.054  49.831 182.169  0.00  0.00    +0.005 C 
ATOM      8  C   LIG    1       18.679  51.089 182.794  0.00  0.00    +0.043 C 
ATOM      9  C   LIG    1       20.007  50.676 183.395  0.00  0.00    -0.004 A 
ATOM     10  S   LIG    1       21.177  51.875 183.839  0.00  0.00    -0.073 S 
ATOM     11  C   LIG    1       22.249  50.648 184.415  0.00  0.00    +0.114 A 
ATOM     12  N   LIG    1       23.457  50.889 184.980  0.00  0.00    -0.228 NA
ATOM     13  C   LIG    1       24.149  49.846 185.366  0.00  0.00    +0.224 A 
ATOM     14  N   LIG    1       23.745  48.562 185.226  0.00  0.00    -0.220 NA
ENDBRANCH   1   2
BRANCH   1  16
ATOM     15  C   LIG    1       21.700  45.275 182.931  0.00  0.00    +0.024 C 
ATOM     16  C   LIG    1       22.723  46.365 183.261  0.00  0.00    +0.104 C 
ENDBRANCH   1  16
BRANCH   1  17
ATOM     17  C   LIG    1       22.626  46.178 185.737  0.00  0.00    +0.202 C 
BRANCH  17  18
ATOM     18  C   LIG    1       21.642  46.416 186.889  0.00  0.00    +0.231 C 
ATOM     19  N   LIG    1       21.915  45.831 188.053  0.00  0.00    -0.309 N 
ATOM     20  H   LIG    1       22.819  45.388 188.123  0.00  0.00    +0.149 HD
ATOM     21  O   LIG    1       20.644  47.120 186.767  0.00  0.00    -0.274 OA
BRANCH  19  22
ATOM     22  C   LIG    1       21.115  46.005 189.248  0.00  0.00    +0.146 C 
BRANCH  22  23
ATOM     23  C   LIG    1       21.802  45.123 190.262  0.00  0.00    +0.007 A 
ATOM     24  S   LIG    1       23.168  44.155 189.818  0.00  0.00    -0.100 S 
ATOM     25  C   LIG    1       23.294  43.537 191.427  0.00  0.00    +0.045 A 
ATOM     26  C   LIG    1       22.330  44.052 192.244  0.00  0.00    +0.008 A 
ATOM     27  C   LIG    1       21.479  44.953 191.580  0.00  0.00    +0.013 A 
ENDBRANCH  22  23
ENDBRANCH  19  22
ENDBRANCH  17  18
ENDBRANCH   1  17
TORSDOF 6
ENDMDL
MODEL 4
REMARK VINA RESULT:      -6.5      2.829      5.904
REMARK  Name = ZINC000006082796
REMARK                            x       y       z     vdW  Elec       q    Type
REMARK                         _______ _______ _______ _____ _____    ______ ____
ROOT
ATOM      1  N   LIG    1       25.952  42.699 182.844  0.00  0.00    -0.306 N 
ENDROOT
BRANCH   1   2
ATOM      2  C   LIG    1       25.210  41.931 181.960  0.00  0.00    +0.133 A 
ATOM      3  C   LIG    1       23.996  42.377 181.385  0.00  0.00    +0.051 A 
ATOM      4  C   LIG    1       23.271  43.606 181.467  0.00  0.00    -0.025 A 
ATOM      5  C   LIG    1       23.712  44.832 182.249  0.00  0.00    +0.037 C 
ATOM      6  C   LIG    1       22.878  46.040 181.789  0.00  0.00    +0.005 C 
ATOM      7  C   LIG    1       21.379  45.704 181.733  0.00  0.00    +0.005 C 
ATOM      8  C   LIG    1       21.090  44.683 180.620  0.00  0.00    +0.043 C 
ATOM      9  C   LIG    1       22.102  43.567 180.763  0.00  0.00    -0.004 A 
ATOM     10  S   LIG    1       21.860  42.056 179.948  0.00  0.00    -0.073 S 
ATOM     11  C   LIG    1       23.358  41.456 180.571  0.00  0.00    +0.114 A 
ATOM     12  N   LIG    1       23.867  40.232 180.292  0.00  0.00    -0.228 NA
ATOM     13  C   LIG    1       25.016  39.928 180.844  0.00  0.00    +0.224 A 
ATOM     14  N   LIG    1       25.708  40.744 181.673  0.00  0.00    -0.220 NA
ENDBRANCH   1   2
BRANCH   1  16
ATOM     15  C   LIG    1       24.952  42.689 185.018  0.00  0.00    +0.024 C 
ATOM     16  C   LIG    1       26.101  42.105 184.193  0.00  0.00    +0.104 C 
ENDBRANCH   1  16
BRANCH   1  17
ATOM     17  C   LIG    1       27.276  43.110 182.247  0.00  0.00    +0.202 C 
BRANCH  17  18
ATOM     18  C   LIG    1       27.542  44.604 182.467  0.00  0.00    +0.231 C 
ATOM     19  N   LIG    1       28.617  45.124 181.879  0.00  0.00    -0.309 N 
ATOM     20  H   LIG    1       29.097  44.523 181.225  0.00  0.00    +0.149 HD
ATOM     21  O   LIG    1       26.802  45.311 183.143  0.00  0.00    -0.274 OA
BRANCH  19  22
ATOM     22  C   LIG    1       28.971  46.527 181.944  0.00  0.00    +0.146 C 
BRANCH  22  23
ATOM     23  C   LIG    1       29.468  46.829 180.550  0.00  0.00    +0.007 A 
ATOM     24  S   LIG    1       28.357  47.138 179.258  0.00  0.00    -0.100 S 
ATOM     25  C   LIG    1       29.662  47.361 178.148  0.00  0.00    +0.045 A 
ATOM     26  C   LIG    1       30.875  47.197 178.752  0.00  0.00    +0.008 A 
ATOM     27  C   LIG    1       30.764  46.892 180.119  0.00  0.00    +0.013 A 
ENDBRANCH  22  23
ENDBRANCH  19  22
ENDBRANCH  17  18
ENDBRANCH   1  17
TORSDOF 6
ENDMDL
MODEL 5
REMARK VINA RESULT:      -6.4     26.158     28.182
REMARK  Name = ZINC000006082796
REMARK                            x       y       z     vdW  Elec       q    Type
REMARK                         _______ _______ _______ _____ _____    ______ ____
ROOT
ATOM      1  N   LIG    1       36.381  19.061 187.249  0.00  0.00    -0.306 N 
ENDROOT
BRANCH   1   2
ATOM      2  C   LIG    1       36.767  18.051 188.116  0.00  0.00    +0.133 A 
ATOM      3  C   LIG    1       37.032  18.274 189.489  0.00  0.00    +0.051 A 
ATOM      4  C   LIG    1       36.945  19.431 190.323  0.00  0.00    -0.025 A 
ATOM      5  C   LIG    1       36.474  20.803 189.872  0.00  0.00    +0.037 C 
ATOM      6  C   LIG    1       36.169  21.656 191.116  0.00  0.00    +0.005 C 
ATOM      7  C   LIG    1       37.304  21.572 192.150  0.00  0.00    +0.005 C 
ATOM      8  C   LIG    1       37.387  20.160 192.754  0.00  0.00    +0.043 C 
ATOM      9  C   LIG    1       37.350  19.179 191.602  0.00  0.00    -0.004 A 
ATOM     10  S   LIG    1       37.813  17.526 191.846  0.00  0.00    -0.073 S 
ATOM     11  C   LIG    1       37.464  17.161 190.192  0.00  0.00    +0.114 A 
ATOM     12  N   LIG    1       37.582  15.931 189.638  0.00  0.00    -0.228 NA
ATOM     13  C   LIG    1       37.277  15.821 188.368  0.00  0.00    +0.224 A 
ATOM     14  N   LIG    1       36.869  16.847 187.586  0.00  0.00    -0.220 NA
ENDBRANCH   1   2
BRANCH   1  16
ATOM     15  C   LIG    1       37.608  19.494 185.240  0.00  0.00    +0.024 C 
ATOM     16  C   LIG    1       37.501  19.873 186.719  0.00  0.00    +0.104 C 
ENDBRANCH   1  16
BRANCH   1  17
ATOM     17  C   LIG    1       35.480  18.541 186.155  0.00  0.00    +0.202 C 
BRANCH  17  18
ATOM     18  C   LIG    1       34.035  19.012 186.357  0.00  0.00    +0.231 C 
ATOM     19  N   LIG    1       33.068  18.232 185.880  0.00  0.00    -0.309 N 
ATOM     20  H   LIG    1       33.358  17.327 185.541  0.00  0.00    +0.149 HD
ATOM     21  O   LIG    1       33.759  20.055 186.942  0.00  0.00    -0.274 OA
BRANCH  19  22
ATOM     22  C   LIG    1       31.656  18.511 186.041  0.00  0.00    +0.146 C 
BRANCH  22  23
ATOM     23  C   LIG    1       31.036  17.915 184.800  0.00  0.00    +0.007 A 
ATOM     24  S   LIG    1       31.966  17.707 183.354  0.00  0.00    -0.100 S 
ATOM     25  C   LIG    1       30.601  17.034 182.535  0.00  0.00    +0.045 A 
ATOM     26  C   LIG    1       29.501  16.985 183.340  0.00  0.00    +0.008 A 
ATOM     27  C   LIG    1       29.748  17.488 184.630  0.00  0.00    +0.013 A 
ENDBRANCH  22  23
ENDBRANCH  19  22
ENDBRANCH  17  18
ENDBRANCH   1  17
TORSDOF 6
ENDMDL
MODEL 6
REMARK VINA RESULT:      -6.3      2.191      3.945
REMARK  Name = ZINC000006082796
REMARK                            x       y       z     vdW  Elec       q    Type
REMARK                         _______ _______ _______ _____ _____    ______ ____
ROOT
ATOM      1  N   LIG    1       23.391  41.661 180.554  0.00  0.00    -0.306 N 
ENDROOT
BRANCH   1   2
ATOM      2  C   LIG    1       23.731  42.566 179.560  0.00  0.00    +0.133 A 
ATOM      3  C   LIG    1       23.374  43.935 179.611  0.00  0.00    +0.051 A 
ATOM      4  C   LIG    1       22.697  44.731 180.586  0.00  0.00    -0.025 A 
ATOM      5  C   LIG    1       22.190  44.229 181.927  0.00  0.00    +0.037 C 
ATOM      6  C   LIG    1       21.871  45.441 182.821  0.00  0.00    +0.005 C 
ATOM      7  C   LIG    1       21.043  46.495 182.069  0.00  0.00    +0.005 C 
ATOM      8  C   LIG    1       21.873  47.145 180.950  0.00  0.00    +0.043 C 
ATOM      9  C   LIG    1       22.536  46.024 180.178  0.00  0.00    -0.004 A 
ATOM     10  S   LIG    1       23.230  46.327 178.618  0.00  0.00    -0.073 S 
ATOM     11  C   LIG    1       23.745  44.680 178.503  0.00  0.00    +0.114 A 
ATOM     12  N   LIG    1       24.442  44.167 177.461  0.00  0.00    -0.228 NA
ATOM     13  C   LIG    1       24.757  42.896 177.527  0.00  0.00    +0.224 A 
ATOM     14  N   LIG    1       24.423  42.076 178.550  0.00  0.00    -0.220 NA
ENDBRANCH   1   2
BRANCH   1  16
ATOM     15  C   LIG    1       22.515  39.458 180.230  0.00  0.00    +0.024 C 
ATOM     16  C   LIG    1       22.122  40.935 180.313  0.00  0.00    +0.104 C 
ENDBRANCH   1  16
BRANCH   1  17
ATOM     17  C   LIG    1       24.535  40.730 180.873  0.00  0.00    +0.202 C 
BRANCH  17  18
ATOM     18  C   LIG    1       25.503  41.365 181.878  0.00  0.00    +0.231 C 
ATOM     19  N   LIG    1       25.024  42.335 182.654  0.00  0.00    -0.309 N 
ATOM     20  H   LIG    1       24.027  42.483 182.611  0.00  0.00    +0.149 HD
ATOM     21  O   LIG    1       26.670  41.002 181.988  0.00  0.00    -0.274 OA
BRANCH  19  22
ATOM     22  C   LIG    1       25.795  42.992 183.688  0.00  0.00    +0.146 C 
BRANCH  22  23
ATOM     23  C   LIG    1       25.176  42.480 184.967  0.00  0.00    +0.007 A 
ATOM     24  S   LIG    1       23.660  43.100 185.531  0.00  0.00    -0.100 S 
ATOM     25  C   LIG    1       23.712  42.061 186.910  0.00  0.00    +0.045 A 
ATOM     26  C   LIG    1       24.839  41.292 186.923  0.00  0.00    +0.008 A 
ATOM     27  C   LIG    1       25.674  41.533 185.818  0.00  0.00    +0.013 A 
ENDBRANCH  22  23
ENDBRANCH  19  22
ENDBRANCH  17  18
ENDBRANCH   1  17
TORSDOF 6
ENDMDL
MODEL 7
REMARK VINA RESULT:      -6.3     28.148     30.547
REMARK  Name = ZINC000006082796
REMARK                            x       y       z     vdW  Elec       q    Type
REMARK                         _______ _______ _______ _____ _____    ______ ____
ROOT
ATOM      1  N   LIG    1       30.558  16.225 196.576  0.00  0.00    -0.306 N 
ENDROOT
BRANCH   1   2
ATOM      2  C   LIG    1       29.671  16.292 195.513  0.00  0.00    +0.133 A 
ATOM      3  C   LIG    1       28.277  16.089 195.660  0.00  0.00    +0.051 A 
ATOM      4  C   LIG    1       27.441  15.844 196.793  0.00  0.00    -0.025 A 
ATOM      5  C   LIG    1       27.918  15.770 198.234  0.00  0.00    +0.037 C 
ATOM      6  C   LIG    1       26.698  15.870 199.166  0.00  0.00    +0.005 C 
ATOM      7  C   LIG    1       25.566  14.932 198.717  0.00  0.00    +0.005 C 
ATOM      8  C   LIG    1       24.972  15.396 197.377  0.00  0.00    +0.043 C 
ATOM      9  C   LIG    1       26.133  15.667 196.444  0.00  0.00    -0.004 A 
ATOM     10  S   LIG    1       25.867  15.827 194.738  0.00  0.00    -0.073 S 
ATOM     11  C   LIG    1       27.549  16.133 194.482  0.00  0.00    +0.114 A 
ATOM     12  N   LIG    1       28.104  16.399 193.275  0.00  0.00    -0.228 NA
ATOM     13  C   LIG    1       29.397  16.608 193.251  0.00  0.00    +0.224 A 
ATOM     14  N   LIG    1       30.202  16.565 194.337  0.00  0.00    -0.220 NA
ENDBRANCH   1   2
BRANCH   1  16
ATOM     15  C   LIG    1       31.060  13.898 196.820  0.00  0.00    +0.024 C 
ATOM     16  C   LIG    1       31.654  15.245 196.398  0.00  0.00    +0.104 C 
ENDBRANCH   1  16
BRANCH   1  17
ATOM     17  C   LIG    1       31.067  17.594 196.961  0.00  0.00    +0.202 C 
BRANCH  17  18
ATOM     18  C   LIG    1       30.771  17.900 198.434  0.00  0.00    +0.231 C 
ATOM     19  N   LIG    1       29.774  18.743 198.692  0.00  0.00    -0.309 N 
ATOM     20  H   LIG    1       29.205  19.009 197.902  0.00  0.00    +0.149 HD
ATOM     21  O   LIG    1       31.408  17.392 199.352  0.00  0.00    -0.274 OA
BRANCH  19  22
ATOM     22  C   LIG    1       29.338  19.088 200.029  0.00  0.00    +0.146 C 
BRANCH  22  23
ATOM     23  C   LIG    1       28.241  20.099 199.791  0.00  0.00    +0.007 A 
ATOM     24  S   LIG    1       28.580  21.797 199.812  0.00  0.00    -0.100 S 
ATOM     25  C   LIG    1       26.923  22.163 199.484  0.00  0.00    +0.045 A 
ATOM     26  C   LIG    1       26.167  21.033 199.374  0.00  0.00    +0.008 A 
ATOM     27  C   LIG    1       26.917  19.858 199.551  0.00  0.00    +0.013 A 
ENDBRANCH  22  23
ENDBRANCH  19  22
ENDBRANCH  17  18
ENDBRANCH   1  17
TORSDOF 6
ENDMDL
MODEL 8
REMARK VINA RESULT:      -6.3     26.361     28.938
REMARK  Name = ZINC000006082796
REMARK                            x       y       z     vdW  Elec       q    Type
REMARK                         _______ _______ _______ _____ _____    ______ ____
ROOT
ATOM      1  N   LIG    1       25.891  48.240 210.661  0.00  0.00    -0.306 N 
ENDROOT
BRANCH   1   2
ATOM      2  C   LIG    1       27.219  48.459 210.993  0.00  0.00    +0.133 A 
ATOM      3  C   LIG    1       28.145  47.407 211.197  0.00  0.00    +0.051 A 
ATOM      4  C   LIG    1       28.046  45.986 211.087  0.00  0.00    -0.025 A 
ATOM      5  C   LIG    1       26.804  45.226 210.654  0.00  0.00    +0.037 C 
ATOM      6  C   LIG    1       27.204  43.781 210.303  0.00  0.00    +0.005 C 
ATOM      7  C   LIG    1       28.104  43.165 211.387  0.00  0.00    +0.005 C 
ATOM      8  C   LIG    1       29.472  43.867 211.424  0.00  0.00    +0.043 C 
ATOM      9  C   LIG    1       29.209  45.358 211.429  0.00  0.00    -0.004 A 
ATOM     10  S   LIG    1       30.469  46.467 211.859  0.00  0.00    -0.073 S 
ATOM     11  C   LIG    1       29.414  47.808 211.582  0.00  0.00    +0.114 A 
ATOM     12  N   LIG    1       29.776  49.107 211.710  0.00  0.00    -0.228 NA
ATOM     13  C   LIG    1       28.856  50.007 211.462  0.00  0.00    +0.224 A 
ATOM     14  N   LIG    1       27.583  49.722 211.105  0.00  0.00    -0.220 NA
ENDBRANCH   1   2
BRANCH   1  16
ATOM     15  C   LIG    1       24.757  47.305 212.549  0.00  0.00    +0.024 C 
ATOM     16  C   LIG    1       24.927  48.587 211.731  0.00  0.00    +0.104 C 
ENDBRANCH   1  16
BRANCH   1  17
ATOM     17  C   LIG    1       25.537  48.877 209.339  0.00  0.00    +0.202 C 
BRANCH  17  18
ATOM     18  C   LIG    1       25.142  47.819 208.302  0.00  0.00    +0.231 C 
ATOM     19  N   LIG    1       24.228  46.922 208.665  0.00  0.00    -0.309 N 
ATOM     20  H   LIG    1       23.769  47.092 209.548  0.00  0.00    +0.149 HD
ATOM     21  O   LIG    1       25.628  47.789 207.176  0.00  0.00    -0.274 OA
BRANCH  19  22
ATOM     22  C   LIG    1       23.711  45.897 207.782  0.00  0.00    +0.146 C 
BRANCH  22  23
ATOM     23  C   LIG    1       23.691  44.662 208.651  0.00  0.00    +0.007 A 
ATOM     24  S   LIG    1       23.060  44.720 210.263  0.00  0.00    -0.100 S 
ATOM     25  C   LIG    1       23.400  43.041 210.490  0.00  0.00    +0.045 A 
ATOM     26  C   LIG    1       23.970  42.485 209.382  0.00  0.00    +0.008 A 
ATOM     27  C   LIG    1       24.138  43.409 208.336  0.00  0.00    +0.013 A 
ENDBRANCH  22  23
ENDBRANCH  19  22
ENDBRANCH  17  18
ENDBRANCH   1  17
TORSDOF 6
ENDMDL
MODEL 9
REMARK VINA RESULT:      -6.2      4.218      6.969
REMARK  Name = ZINC000006082796
REMARK                            x       y       z     vdW  Elec       q    Type
REMARK                         _______ _______ _______ _____ _____    ______ ____
ROOT
ATOM      1  N   LIG    1       22.774  45.555 184.049  0.00  0.00    -0.306 N 
ENDROOT
BRANCH   1   2
ATOM      2  C   LIG    1       23.430  44.429 184.522  0.00  0.00    +0.133 A 
ATOM      3  C   LIG    1       24.586  43.895 183.904  0.00  0.00    +0.051 A 
ATOM      4  C   LIG    1       25.377  44.313 182.789  0.00  0.00    -0.025 A 
ATOM      5  C   LIG    1       25.135  45.564 181.964  0.00  0.00    +0.037 C 
ATOM      6  C   LIG    1       26.390  45.854 181.122  0.00  0.00    +0.005 C 
ATOM      7  C   LIG    1       26.897  44.590 180.410  0.00  0.00    +0.005 C 
ATOM      8  C   LIG    1       27.433  43.569 181.427  0.00  0.00    +0.043 C 
ATOM      9  C   LIG    1       26.397  43.445 182.523  0.00  0.00    -0.004 A 
ATOM     10  S   LIG    1       26.454  42.116 183.635  0.00  0.00    -0.073 S 
ATOM     11  C   LIG    1       25.074  42.731 184.476  0.00  0.00    +0.114 A 
ATOM     12  N   LIG    1       24.529  42.158 185.576  0.00  0.00    -0.228 NA
ATOM     13  C   LIG    1       23.482  42.750 186.095  0.00  0.00    +0.224 A 
ATOM     14  N   LIG    1       22.913  43.874 185.602  0.00  0.00    -0.220 NA
ENDBRANCH   1   2
BRANCH   1  16
ATOM     15  C   LIG    1       21.634  46.130 182.025  0.00  0.00    +0.024 C 
ATOM     16  C   LIG    1       21.537  45.268 183.286  0.00  0.00    +0.104 C 
ENDBRANCH   1  16
BRANCH   1  17
ATOM     17  C   LIG    1       22.552  46.569 185.145  0.00  0.00    +0.202 C 
BRANCH  17  18
ATOM     18  C   LIG    1       23.080  47.950 184.737  0.00  0.00    +0.231 C 
ATOM     19  N   LIG    1       22.357  49.008 185.094  0.00  0.00    -0.309 N 
ATOM     20  H   LIG    1       21.587  48.826 185.721  0.00  0.00    +0.149 HD
ATOM     21  O   LIG    1       24.130  48.095 184.118  0.00  0.00    -0.274 OA
BRANCH  19  22
ATOM     22  C   LIG    1       22.751  50.377 184.833  0.00  0.00    +0.146 C 
BRANCH  22  23
ATOM     23  C   LIG    1       21.492  51.008 184.288  0.00  0.00    +0.007 A 
ATOM     24  S   LIG    1       21.409  51.550 182.646  0.00  0.00    -0.100 S 
ATOM     25  C   LIG    1       19.779  52.078 182.869  0.00  0.00    +0.045 A 
ATOM     26  C   LIG    1       19.342  51.848 184.141  0.00  0.00    +0.008 A 
ATOM     27  C   LIG    1       20.318  51.241 184.950  0.00  0.00    +0.013 A 
ENDBRANCH  22  23
ENDBRANCH  19  22
ENDBRANCH  17  18
ENDBRANCH   1  17
TORSDOF 6
ENDMDL
