REMARK VINA RESULT:     -10.2      2.739      3.482
REMARK  Name = ZINC000049410302
REMARK                            x       y       z     vdW  Elec       q    Type
REMARK                         _______ _______ _______ _____ _____    ______ ____
ROOT
ATOM      1  C   LIG    1       26.299  15.606 190.164  0.00  0.00    +0.314 A 
ATOM      2  O   LIG    1       27.326  16.395 190.429  0.00  0.00    -0.328 OA
ATOM      3  N   LIG    1       27.731  16.936 189.305  0.00  0.00    -0.054 NA
ATOM      4  C   LIG    1       26.947  16.466 188.388  0.00  0.00    +0.224 A 
ATOM      5  N   LIG    1       26.027  15.618 188.902  0.00  0.00    -0.182 NA
ENDROOT
BRANCH   4   6
ATOM      6  C   LIG    1       27.053  16.816 186.968  0.00  0.00    +0.153 A 
ATOM      7  N   LIG    1       26.160  17.588 186.286  0.00  0.00    -0.126 NA
ATOM      8  N   LIG    1       26.576  17.684 185.050  0.00  0.00    -0.060 NA
ATOM      9  N   LIG    1       27.723  16.985 184.933  0.00  0.00    -0.219 N 
ATOM     10  C   LIG    1       28.032  16.439 186.112  0.00  0.00    +0.148 A 
BRANCH   9  11
ATOM     11  C   LIG    1       28.470  16.864 183.703  0.00  0.00    +0.068 A 
ATOM     12  C   LIG    1       29.835  17.156 183.694  0.00  0.00    +0.047 A 
ATOM     13  C   LIG    1       30.540  17.025 182.498  0.00  0.00    +0.043 A 
ATOM     14 CL   LIG    1       32.235  17.376 182.457  0.00  0.00    -0.083 Cl
ATOM     15  C   LIG    1       29.886  16.614 181.332  0.00  0.00    +0.020 A 
ATOM     16  C   LIG    1       28.521  16.331 181.357  0.00  0.00    +0.003 A 
ATOM     17  C   LIG    1       27.803  16.455 182.544  0.00  0.00    +0.028 A 
ENDBRANCH   9  11
ENDBRANCH   4   6
BRANCH   1  20
ATOM     18  N   LIG    1       25.290  15.585 192.365  0.00  0.00    -0.278 N 
ATOM     19  H   LIG    1       25.479  16.595 192.293  0.00  0.00    +0.155 HD
ATOM     20  C   LIG    1       25.639  14.863 191.237  0.00  0.00    +0.306 C 
ATOM     21  O   LIG    1       25.374  13.664 191.177  0.00  0.00    -0.265 OA
BRANCH  18  26
ATOM     22  C   LIG    1       22.506  13.777 197.016  0.00  0.00    +0.044 C 
ATOM     23  C   LIG    1       23.261  14.249 195.792  0.00  0.00    -0.050 A 
ATOM     24  C   LIG    1       22.603  14.383 194.569  0.00  0.00    +0.005 A 
ATOM     25  C   LIG    1       23.292  14.821 193.443  0.00  0.00    +0.023 A 
ATOM     26  C   LIG    1       24.648  15.129 193.541  0.00  0.00    +0.034 A 
ATOM     27  C   LIG    1       25.314  15.012 194.764  0.00  0.00    +0.023 A 
ATOM     28  C   LIG    1       24.616  14.571 195.883  0.00  0.00    +0.005 A 
ENDBRANCH  18  26
ENDBRANCH   1  20
TORSDOF 4
