REMARK VINA RESULT:      -8.9     27.530     30.358
REMARK  Name = ZINC000000603759
REMARK                            x       y       z     vdW  Elec       q    Type
REMARK                         _______ _______ _______ _____ _____    ______ ____
ROOT
ATOM      1  C   LIG    1       26.672  15.949 191.757  0.00  0.00    +0.139 A 
ATOM      2  C   LIG    1       25.602  15.202 192.321  0.00  0.00    +0.050 A 
ATOM      3  C   LIG    1       24.510  14.466 191.825  0.00  0.00    +0.015 A 
ATOM      4  C   LIG    1       23.671  13.872 192.748  0.00  0.00    +0.020 A 
ATOM      5  C   LIG    1       23.916  14.012 194.134  0.00  0.00    +0.113 A 
ATOM      6  N   LIG    1       24.938  14.698 194.610  0.00  0.00    -0.236 NA
ATOM      7  C   LIG    1       25.755  15.268 193.686  0.00  0.00    +0.159 A 
ATOM      8  N   LIG    1       26.876  16.017 193.900  0.00  0.00    -0.241 N 
ATOM      9  N   LIG    1       27.434  16.439 192.732  0.00  0.00    -0.165 NA
ENDROOT
BRANCH   1  14
ATOM     10  C   LIG    1       26.420  15.673 188.132  0.00  0.00    +0.128 A 
ATOM     11  C   LIG    1       27.386  16.571 187.658  0.00  0.00    +0.040 A 
ATOM     12  C   LIG    1       28.104  17.248 188.631  0.00  0.00    +0.125 A 
ATOM     13  N   LIG    1       27.871  17.042 189.918  0.00  0.00    -0.234 NA
ATOM     14  C   LIG    1       26.915  16.160 190.318  0.00  0.00    +0.183 A 
ATOM     15  N   LIG    1       26.194  15.479 189.409  0.00  0.00    -0.211 NA
BRANCH  11  16
ATOM     16  C   LIG    1       27.629  16.794 186.241  0.00  0.00    -0.010 A 
ATOM     17  C   LIG    1       26.622  17.246 185.387  0.00  0.00    +0.028 A 
ATOM     18  C   LIG    1       26.889  17.452 184.039  0.00  0.00    +0.111 A 
ATOM     19  N   LIG    1       28.098  17.229 183.524  0.00  0.00    -0.263 NA
ATOM     20  C   LIG    1       29.081  16.798 184.313  0.00  0.00    +0.111 A 
ATOM     21  C   LIG    1       28.883  16.572 185.669  0.00  0.00    +0.028 A 
ENDBRANCH  11  16
BRANCH  10  22
ATOM     22  N   LIG    1       25.645  14.912 187.323  0.00  0.00    -0.343 N 
ATOM     23  H   LIG    1       25.035  15.405 186.659  0.00  0.00    +0.144 HD
ATOM     24  H   LIG    1       26.109  14.053 186.996  0.00  0.00    +0.144 HD
ENDBRANCH  10  22
ENDBRANCH   1  14
BRANCH   8  25
ATOM     25  C   LIG    1       27.437  16.335 195.210  0.00  0.00    +0.183 C 
BRANCH  25  26
ATOM     26  C   LIG    1       28.821  15.701 195.275  0.00  0.00    +0.009 A 
ATOM     27  C   LIG    1       29.157  14.801 196.285  0.00  0.00    +0.128 A 
ATOM     28  F   LIG    1       28.246  14.483 197.238  0.00  0.00    -0.205 F 
ATOM     29  C   LIG    1       30.411  14.210 196.372  0.00  0.00    +0.039 A 
ATOM     30  C   LIG    1       31.373  14.530 195.419  0.00  0.00    +0.003 A 
ATOM     31  C   LIG    1       31.066  15.433 194.401  0.00  0.00    +0.000 A 
ATOM     32  C   LIG    1       29.801  16.016 194.330  0.00  0.00    +0.008 A 
ENDBRANCH  25  26
ENDBRANCH   8  25
TORSDOF 5
