REMARK VINA RESULT:      -8.2     14.611     16.583
REMARK  Name = ZINC000009035748
REMARK                            x       y       z     vdW  Elec       q    Type
REMARK                         _______ _______ _______ _____ _____    ______ ____
ROOT
ATOM      1  C   LIG    1       27.387  48.446 211.328  0.00  0.00    +0.218 C 
ATOM      2  N   LIG    1       26.374  47.910 210.611  0.00  0.00    -0.297 N 
ATOM      3  C   LIG    1       26.083  46.467 210.808  0.00  0.00    +0.143 C 
ATOM      4  C   LIG    1       25.381  45.888 209.581  0.00  0.00    -0.025 A 
ATOM      5  C   LIG    1       24.950  44.564 209.633  0.00  0.00    +0.028 A 
ATOM      6  C   LIG    1       24.301  43.996 208.536  0.00  0.00    +0.034 A 
ATOM      7  C   LIG    1       24.091  44.738 207.374  0.00  0.00    +0.023 A 
ATOM      8  C   LIG    1       24.523  46.057 207.321  0.00  0.00    +0.006 A 
ATOM      9  C   LIG    1       25.162  46.639 208.418  0.00  0.00    -0.041 A 
ATOM     10  C   LIG    1       25.627  48.077 208.338  0.00  0.00    +0.054 C 
ATOM     11  C   LIG    1       25.447  48.670 209.743  0.00  0.00    +0.113 C 
ATOM     12  O   LIG    1       28.012  47.753 212.129  0.00  0.00    -0.275 OA
ENDROOT
BRANCH   6  13
ATOM     13  N   LIG    1       23.902  42.643 208.647  0.00  0.00    -0.283 N 
ATOM     14  H   LIG    1       24.502  41.936 208.203  0.00  0.00    +0.155 HD
ATOM     15  C   LIG    1       22.790  42.144 209.280  0.00  0.00    +0.255 C 
ATOM     16  O   LIG    1       22.007  42.880 209.846  0.00  0.00    -0.272 OA
BRANCH  15  17
ATOM     17  C   LIG    1       22.610  40.637 209.282  0.00  0.00    +0.324 C 
BRANCH  17  18
ATOM     18  O   LIG    1       21.453  40.331 210.132  0.00  0.00    -0.483 OA
BRANCH  18  19
ATOM     19  C   LIG    1       20.256  39.829 209.669  0.00  0.00    +0.121 A 
ATOM     20  C   LIG    1       19.584  38.930 210.495  0.00  0.00    +0.047 A 
ATOM     21  C   LIG    1       18.370  38.391 210.082  0.00  0.00    +0.023 A 
ATOM     22  C   LIG    1       17.834  38.752 208.844  0.00  0.00    +0.041 A 
ATOM     23 CL   LIG    1       16.324  38.079 208.330  0.00  0.00    -0.084 Cl
ATOM     24  C   LIG    1       18.511  39.653 208.018  0.00  0.00    +0.023 A 
ATOM     25  C   LIG    1       19.725  40.195 208.429  0.00  0.00    +0.047 A 
ENDBRANCH  18  19
ENDBRANCH  17  18
ENDBRANCH  15  17
ENDBRANCH   6  13
BRANCH   1  27
ATOM     26  C   LIG    1       26.957  50.829 212.174  0.00  0.00    +0.017 C 
ATOM     27  C   LIG    1       27.757  49.947 211.195  0.00  0.00    +0.069 C 
ATOM     28  C   LIG    1       29.254  50.220 211.438  0.00  0.00    +0.017 C 
ENDBRANCH   1  27
TORSDOF 5
