MODEL 1
REMARK VINA RESULT:      -9.3      0.000      0.000
REMARK  Name = ZINC000006086009
REMARK                            x       y       z     vdW  Elec       q    Type
REMARK                         _______ _______ _______ _____ _____    ______ ____
ROOT
ATOM      1  N   LIG    1       22.426  44.653 184.856  0.00  0.00    -0.286 NA
ATOM      2  C   LIG    1       22.149  44.136 183.492  0.00  0.00    +0.106 C 
ENDROOT
BRANCH   1   3
ATOM      3  C   LIG    1       22.604  46.165 184.836  0.00  0.00    +0.140 C 
ATOM      4  C   LIG    1       23.364  46.491 183.534  0.00  0.00    +0.034 C 
BRANCH   3   7
ATOM      5  N   LIG    1       21.242  48.072 185.621  0.00  0.00    -0.281 N 
ATOM      6  H   LIG    1       22.093  48.267 186.164  0.00  0.00    +0.155 HD
ATOM      7  C   LIG    1       21.268  46.949 184.833  0.00  0.00    +0.234 C 
ATOM      8  O   LIG    1       20.264  46.586 184.246  0.00  0.00    -0.274 OA
BRANCH   5  10
ATOM      9  C   LIG    1       19.979  50.095 185.348  0.00  0.00    +0.141 A 
ATOM     10  C   LIG    1       20.123  48.859 185.992  0.00  0.00    +0.076 A 
ATOM     11  C   LIG    1       19.188  48.446 186.942  0.00  0.00    +0.027 A 
ATOM     12  C   LIG    1       18.117  49.281 187.255  0.00  0.00    +0.002 A 
ATOM     13  C   LIG    1       17.976  50.515 186.621  0.00  0.00    +0.004 A 
ATOM     14  C   LIG    1       18.904  50.927 185.664  0.00  0.00    +0.047 A 
BRANCH   9  16
ATOM     15  C   LIG    1       20.723  50.426 182.968  0.00  0.00    +0.277 C 
ATOM     16  O   LIG    1       20.936  50.460 184.399  0.00  0.00    -0.493 OA
ENDBRANCH   9  16
ENDBRANCH   5  10
ENDBRANCH   3   7
ENDBRANCH   1   3
BRANCH   1  17
ATOM     17  C   LIG    1       23.608  43.897 185.470  0.00  0.00    +0.181 C 
BRANCH  17  18
ATOM     18  C   LIG    1       23.241  43.388 186.860  0.00  0.00    +0.231 C 
ATOM     19  N   LIG    1       23.282  44.336 187.848  0.00  0.00    -0.284 N 
ATOM     20  H   LIG    1       23.489  45.276 187.477  0.00  0.00    +0.155 HD
ATOM     21  O   LIG    1       22.960  42.227 187.084  0.00  0.00    -0.274 OA
BRANCH  19  22
ATOM     22  C   LIG    1       23.101  44.222 189.248  0.00  0.00    +0.041 A 
ATOM     23  C   LIG    1       21.961  44.871 189.820  0.00  0.00    +0.003 A 
ATOM     24  C   LIG    1       21.045  45.659 189.065  0.00  0.00    +0.010 A 
ATOM     25  C   LIG    1       19.959  46.251 189.666  0.00  0.00    +0.001 A 
ATOM     26  C   LIG    1       19.737  46.091 191.048  0.00  0.00    +0.001 A 
ATOM     27  C   LIG    1       20.608  45.347 191.806  0.00  0.00    +0.008 A 
ATOM     28  C   LIG    1       21.739  44.727 191.214  0.00  0.00    -0.016 A 
ATOM     29  C   LIG    1       22.651  43.971 191.995  0.00  0.00    +0.008 A 
ATOM     30  C   LIG    1       23.743  43.369 191.415  0.00  0.00    +0.002 A 
ATOM     31  C   LIG    1       23.972  43.487 190.033  0.00  0.00    +0.024 A 
ENDBRANCH  19  22
ENDBRANCH  17  18
ENDBRANCH   1  17
TORSDOF 7
ENDMDL
MODEL 2
REMARK VINA RESULT:      -8.8      3.601      5.703
REMARK  Name = ZINC000006086009
REMARK                            x       y       z     vdW  Elec       q    Type
REMARK                         _______ _______ _______ _____ _____    ______ ____
ROOT
ATOM      1  N   LIG    1       24.482  42.528 184.841  0.00  0.00    -0.286 NA
ATOM      2  C   LIG    1       25.329  41.841 185.850  0.00  0.00    +0.106 C 
ENDROOT
BRANCH   1   3
ATOM      3  C   LIG    1       25.326  43.040 183.683  0.00  0.00    +0.140 C 
ATOM      4  C   LIG    1       26.202  41.853 183.233  0.00  0.00    +0.034 C 
BRANCH   3   7
ATOM      5  N   LIG    1       23.192  43.082 182.437  0.00  0.00    -0.281 N 
ATOM      6  H   LIG    1       22.904  42.452 183.197  0.00  0.00    +0.155 HD
ATOM      7  C   LIG    1       24.492  43.520 182.469  0.00  0.00    +0.234 C 
ATOM      8  O   LIG    1       24.942  44.177 181.547  0.00  0.00    -0.274 OA
BRANCH   5  10
ATOM      9  C   LIG    1       22.095  42.017 180.586  0.00  0.00    +0.141 A 
ATOM     10  C   LIG    1       22.262  43.166 181.371  0.00  0.00    +0.076 A 
ATOM     11  C   LIG    1       21.524  44.318 181.098  0.00  0.00    +0.027 A 
ATOM     12  C   LIG    1       20.632  44.323 180.028  0.00  0.00    +0.002 A 
ATOM     13  C   LIG    1       20.470  43.183 179.240  0.00  0.00    +0.004 A 
ATOM     14  C   LIG    1       21.199  42.026 179.516  0.00  0.00    +0.047 A 
BRANCH   9  16
ATOM     15  C   LIG    1       22.637  39.573 180.331  0.00  0.00    +0.277 C 
ATOM     16  O   LIG    1       22.849  40.886 180.904  0.00  0.00    -0.493 OA
ENDBRANCH   9  16
ENDBRANCH   5  10
ENDBRANCH   3   7
ENDBRANCH   1   3
BRANCH   1  17
ATOM     17  C   LIG    1       23.638  43.610 185.521  0.00  0.00    +0.181 C 
BRANCH  17  18
ATOM     18  C   LIG    1       23.248  43.167 186.927  0.00  0.00    +0.231 C 
ATOM     19  N   LIG    1       23.371  44.136 187.889  0.00  0.00    -0.284 N 
ATOM     20  H   LIG    1       23.646  45.047 187.491  0.00  0.00    +0.155 HD
ATOM     21  O   LIG    1       22.882  42.038 187.185  0.00  0.00    -0.274 OA
BRANCH  19  22
ATOM     22  C   LIG    1       23.198  44.073 189.293  0.00  0.00    +0.041 A 
ATOM     23  C   LIG    1       22.077  44.767 189.849  0.00  0.00    +0.003 A 
ATOM     24  C   LIG    1       21.174  45.550 189.074  0.00  0.00    +0.010 A 
ATOM     25  C   LIG    1       20.106  46.187 189.661  0.00  0.00    +0.001 A 
ATOM     26  C   LIG    1       19.890  46.079 191.049  0.00  0.00    +0.001 A 
ATOM     27  C   LIG    1       20.749  45.340 191.826  0.00  0.00    +0.008 A 
ATOM     28  C   LIG    1       21.861  44.675 191.249  0.00  0.00    -0.016 A 
ATOM     29  C   LIG    1       22.760  43.924 192.049  0.00  0.00    +0.008 A 
ATOM     30  C   LIG    1       23.834  43.277 191.484  0.00  0.00    +0.002 A 
ATOM     31  C   LIG    1       24.056  43.345 190.097  0.00  0.00    +0.024 A 
ENDBRANCH  19  22
ENDBRANCH  17  18
ENDBRANCH   1  17
TORSDOF 7
ENDMDL
MODEL 3
REMARK VINA RESULT:      -8.7      3.585      6.159
REMARK  Name = ZINC000006086009
REMARK                            x       y       z     vdW  Elec       q    Type
REMARK                         _______ _______ _______ _____ _____    ______ ____
ROOT
ATOM      1  N   LIG    1       24.010  43.650 185.445  0.00  0.00    -0.286 NA
ATOM      2  C   LIG    1       22.921  44.661 185.429  0.00  0.00    +0.106 C 
ENDROOT
BRANCH   1   3
ATOM      3  C   LIG    1       24.386  43.237 184.029  0.00  0.00    +0.140 C 
ATOM      4  C   LIG    1       23.371  43.929 183.096  0.00  0.00    +0.034 C 
BRANCH   3   7
ATOM      5  N   LIG    1       25.877  44.790 182.816  0.00  0.00    -0.281 N 
ATOM      6  H   LIG    1       24.979  45.210 182.547  0.00  0.00    +0.155 HD
ATOM      7  C   LIG    1       25.812  43.673 183.611  0.00  0.00    +0.234 C 
ATOM      8  O   LIG    1       26.824  43.051 183.881  0.00  0.00    -0.274 OA
BRANCH   5  10
ATOM      9  C   LIG    1       26.976  45.147 180.712  0.00  0.00    +0.141 A 
ATOM     10  C   LIG    1       26.992  45.299 182.105  0.00  0.00    +0.076 A 
ATOM     11  C   LIG    1       28.064  45.936 182.731  0.00  0.00    +0.027 A 
ATOM     12  C   LIG    1       29.126  46.406 181.961  0.00  0.00    +0.002 A 
ATOM     13  C   LIG    1       29.116  46.247 180.576  0.00  0.00    +0.004 A 
ATOM     14  C   LIG    1       28.041  45.619 179.945  0.00  0.00    +0.047 A 
BRANCH   9  16
ATOM     15  C   LIG    1       25.957  43.299 179.342  0.00  0.00    +0.277 C 
ATOM     16  O   LIG    1       25.877  44.510 180.131  0.00  0.00    -0.493 OA
ENDBRANCH   9  16
ENDBRANCH   5  10
ENDBRANCH   3   7
ENDBRANCH   1   3
BRANCH   1  17
ATOM     17  C   LIG    1       23.621  42.479 186.352  0.00  0.00    +0.181 C 
BRANCH  17  18
ATOM     18  C   LIG    1       23.859  42.844 187.813  0.00  0.00    +0.231 C 
ATOM     19  N   LIG    1       22.725  43.142 188.523  0.00  0.00    -0.284 N 
ATOM     20  H   LIG    1       21.869  43.001 187.965  0.00  0.00    +0.155 HD
ATOM     21  O   LIG    1       24.967  42.895 188.307  0.00  0.00    -0.274 OA
BRANCH  19  22
ATOM     22  C   LIG    1       22.560  43.608 189.850  0.00  0.00    +0.041 A 
ATOM     23  C   LIG    1       21.757  44.777 190.042  0.00  0.00    +0.003 A 
ATOM     24  C   LIG    1       21.174  45.513 188.971  0.00  0.00    +0.010 A 
ATOM     25  C   LIG    1       20.402  46.625 189.216  0.00  0.00    +0.001 A 
ATOM     26  C   LIG    1       20.180  47.059 190.538  0.00  0.00    +0.001 A 
ATOM     27  C   LIG    1       20.738  46.378 191.591  0.00  0.00    +0.008 A 
ATOM     28  C   LIG    1       21.542  45.229 191.369  0.00  0.00    -0.016 A 
ATOM     29  C   LIG    1       22.135  44.531 192.453  0.00  0.00    +0.008 A 
ATOM     30  C   LIG    1       22.909  43.416 192.233  0.00  0.00    +0.002 A 
ATOM     31  C   LIG    1       23.122  42.944 190.926  0.00  0.00    +0.024 A 
ENDBRANCH  19  22
ENDBRANCH  17  18
ENDBRANCH   1  17
TORSDOF 7
ENDMDL
MODEL 4
REMARK VINA RESULT:      -8.7      1.541      6.807
REMARK  Name = ZINC000006086009
REMARK                            x       y       z     vdW  Elec       q    Type
REMARK                         _______ _______ _______ _____ _____    ______ ____
ROOT
ATOM      1  N   LIG    1       23.761  44.677 184.669  0.00  0.00    -0.286 NA
ATOM      2  C   LIG    1       24.484  44.901 183.391  0.00  0.00    +0.106 C 
ENDROOT
BRANCH   1   3
ATOM      3  C   LIG    1       23.788  43.205 185.056  0.00  0.00    +0.140 C 
ATOM      4  C   LIG    1       25.247  42.739 184.870  0.00  0.00    +0.034 C 
BRANCH   3   7
ATOM      5  N   LIG    1       23.258  44.055 187.316  0.00  0.00    -0.281 N 
ATOM      6  H   LIG    1       23.489  44.953 186.873  0.00  0.00    +0.155 HD
ATOM      7  C   LIG    1       23.373  42.939 186.525  0.00  0.00    +0.234 C 
ATOM      8  O   LIG    1       23.226  41.829 187.003  0.00  0.00    -0.274 OA
BRANCH   5  10
ATOM      9  C   LIG    1       22.065  44.915 189.213  0.00  0.00    +0.141 A 
ATOM     10  C   LIG    1       23.112  44.123 188.724  0.00  0.00    +0.076 A 
ATOM     11  C   LIG    1       23.949  43.438 189.605  0.00  0.00    +0.027 A 
ATOM     12  C   LIG    1       23.743  43.560 190.978  0.00  0.00    +0.002 A 
ATOM     13  C   LIG    1       22.707  44.354 191.468  0.00  0.00    +0.004 A 
ATOM     14  C   LIG    1       21.862  45.033 190.589  0.00  0.00    +0.047 A 
BRANCH   9  16
ATOM     15  C   LIG    1       20.417  46.716 188.604  0.00  0.00    +0.277 C 
ATOM     16  O   LIG    1       21.250  45.574 188.291  0.00  0.00    -0.493 OA
ENDBRANCH   9  16
ENDBRANCH   5  10
ENDBRANCH   3   7
ENDBRANCH   1   3
BRANCH   1  17
ATOM     17  C   LIG    1       22.352  45.271 184.582  0.00  0.00    +0.181 C 
BRANCH  17  18
ATOM     18  C   LIG    1       22.370  46.733 185.015  0.00  0.00    +0.231 C 
ATOM     19  N   LIG    1       21.723  47.592 184.165  0.00  0.00    -0.284 N 
ATOM     20  H   LIG    1       21.258  47.095 183.390  0.00  0.00    +0.155 HD
ATOM     21  O   LIG    1       22.936  47.116 186.019  0.00  0.00    -0.274 OA
BRANCH  19  22
ATOM     22  C   LIG    1       21.613  49.003 184.184  0.00  0.00    +0.041 A 
ATOM     23  C   LIG    1       20.427  49.563 184.758  0.00  0.00    +0.003 A 
ATOM     24  C   LIG    1       19.348  48.776 185.254  0.00  0.00    +0.010 A 
ATOM     25  C   LIG    1       18.236  49.369 185.806  0.00  0.00    +0.001 A 
ATOM     26  C   LIG    1       18.146  50.772 185.886  0.00  0.00    +0.001 A 
ATOM     27  C   LIG    1       19.164  51.559 185.406  0.00  0.00    +0.008 A 
ATOM     28  C   LIG    1       20.321  50.976 184.828  0.00  0.00    -0.016 A 
ATOM     29  C   LIG    1       21.369  51.784 184.316  0.00  0.00    +0.008 A 
ATOM     30  C   LIG    1       22.491  51.214 183.761  0.00  0.00    +0.002 A 
ATOM     31  C   LIG    1       22.621  49.815 183.696  0.00  0.00    +0.024 A 
ENDBRANCH  19  22
ENDBRANCH  17  18
ENDBRANCH   1  17
TORSDOF 7
ENDMDL
MODEL 5
REMARK VINA RESULT:      -8.6     29.140     30.681
REMARK  Name = ZINC000006086009
REMARK                            x       y       z     vdW  Elec       q    Type
REMARK                         _______ _______ _______ _____ _____    ______ ____
ROOT
ATOM      1  N   LIG    1       34.224  19.384 186.419  0.00  0.00    -0.286 NA
ATOM      2  C   LIG    1       34.384  20.678 185.709  0.00  0.00    +0.106 C 
ENDROOT
BRANCH   1   3
ATOM      3  C   LIG    1       35.579  18.797 186.787  0.00  0.00    +0.140 C 
ATOM      4  C   LIG    1       36.603  19.448 185.834  0.00  0.00    +0.034 C 
BRANCH   3   7
ATOM      5  N   LIG    1       36.381  20.390 188.498  0.00  0.00    -0.281 N 
ATOM      6  H   LIG    1       36.370  21.032 187.695  0.00  0.00    +0.155 HD
ATOM      7  C   LIG    1       36.011  19.093 188.245  0.00  0.00    +0.234 C 
ATOM      8  O   LIG    1       36.104  18.246 189.116  0.00  0.00    -0.274 OA
BRANCH   5  10
ATOM      9  C   LIG    1       38.411  21.065 189.587  0.00  0.00    +0.141 A 
ATOM     10  C   LIG    1       37.020  20.913 189.650  0.00  0.00    +0.076 A 
ATOM     11  C   LIG    1       36.323  21.280 190.802  0.00  0.00    +0.027 A 
ATOM     12  C   LIG    1       37.025  21.784 191.895  0.00  0.00    +0.002 A 
ATOM     13  C   LIG    1       38.411  21.927 191.838  0.00  0.00    +0.004 A 
ATOM     14  C   LIG    1       39.109  21.571 190.684  0.00  0.00    +0.047 A 
BRANCH   9  16
ATOM     15  C   LIG    1       39.778  19.447 188.229  0.00  0.00    +0.277 C 
ATOM     16  O   LIG    1       39.062  20.692 188.409  0.00  0.00    -0.493 OA
ENDBRANCH   9  16
ENDBRANCH   5  10
ENDBRANCH   3   7
ENDBRANCH   1   3
BRANCH   1  17
ATOM     17  C   LIG    1       33.342  18.442 185.594  0.00  0.00    +0.181 C 
BRANCH  17  18
ATOM     18  C   LIG    1       31.878  18.622 185.979  0.00  0.00    +0.231 C 
ATOM     19  N   LIG    1       31.059  17.582 185.622  0.00  0.00    -0.284 N 
ATOM     20  H   LIG    1       31.584  16.798 185.206  0.00  0.00    +0.155 HD
ATOM     21  O   LIG    1       31.459  19.618 186.533  0.00  0.00    -0.274 OA
BRANCH  19  22
ATOM     22  C   LIG    1       29.654  17.434 185.724  0.00  0.00    +0.041 A 
ATOM     23  C   LIG    1       28.926  17.214 184.512  0.00  0.00    +0.003 A 
ATOM     24  C   LIG    1       29.533  17.193 183.224  0.00  0.00    +0.010 A 
ATOM     25  C   LIG    1       28.785  16.967 182.092  0.00  0.00    +0.001 A 
ATOM     26  C   LIG    1       27.396  16.755 182.190  0.00  0.00    +0.001 A 
ATOM     27  C   LIG    1       26.778  16.780 183.417  0.00  0.00    +0.008 A 
ATOM     28  C   LIG    1       27.524  17.015 184.601  0.00  0.00    -0.016 A 
ATOM     29  C   LIG    1       26.889  17.059 185.869  0.00  0.00    +0.008 A 
ATOM     30  C   LIG    1       27.617  17.282 187.014  0.00  0.00    +0.002 A 
ATOM     31  C   LIG    1       29.009  17.467 186.947  0.00  0.00    +0.024 A 
ENDBRANCH  19  22
ENDBRANCH  17  18
ENDBRANCH   1  17
TORSDOF 7
ENDMDL
MODEL 6
REMARK VINA RESULT:      -8.4     29.210     30.506
REMARK  Name = ZINC000006086009
REMARK                            x       y       z     vdW  Elec       q    Type
REMARK                         _______ _______ _______ _____ _____    ______ ____
ROOT
ATOM      1  N   LIG    1       33.802  19.428 186.601  0.00  0.00    -0.286 NA
ATOM      2  C   LIG    1       34.512  20.510 185.872  0.00  0.00    +0.106 C 
ENDROOT
BRANCH   1   3
ATOM      3  C   LIG    1       34.676  18.857 187.709  0.00  0.00    +0.140 C 
ATOM      4  C   LIG    1       35.722  17.963 187.011  0.00  0.00    +0.034 C 
BRANCH   3   7
ATOM      5  N   LIG    1       36.757  19.691 188.749  0.00  0.00    -0.281 N 
ATOM      6  H   LIG    1       37.124  18.805 188.379  0.00  0.00    +0.155 HD
ATOM      7  C   LIG    1       35.424  19.935 188.531  0.00  0.00    +0.234 C 
ATOM      8  O   LIG    1       34.888  20.907 189.032  0.00  0.00    -0.274 OA
BRANCH   5  10
ATOM      9  C   LIG    1       38.608  21.190 189.045  0.00  0.00    +0.141 A 
ATOM     10  C   LIG    1       37.641  20.362 189.630  0.00  0.00    +0.076 A 
ATOM     11  C   LIG    1       37.570  20.234 191.017  0.00  0.00    +0.027 A 
ATOM     12  C   LIG    1       38.480  20.924 191.816  0.00  0.00    +0.002 A 
ATOM     13  C   LIG    1       39.449  21.742 191.235  0.00  0.00    +0.004 A 
ATOM     14  C   LIG    1       39.516  21.880 189.848  0.00  0.00    +0.047 A 
BRANCH   9  16
ATOM     15  C   LIG    1       39.808  21.066 186.836  0.00  0.00    +0.277 C 
ATOM     16  O   LIG    1       38.633  21.292 187.652  0.00  0.00    -0.493 OA
ENDBRANCH   9  16
ENDBRANCH   5  10
ENDBRANCH   3   7
ENDBRANCH   1   3
BRANCH   1  17
ATOM     17  C   LIG    1       33.291  18.380 185.609  0.00  0.00    +0.181 C 
BRANCH  17  18
ATOM     18  C   LIG    1       31.829  18.648 185.268  0.00  0.00    +0.231 C 
ATOM     19  N   LIG    1       31.047  17.526 185.170  0.00  0.00    -0.284 N 
ATOM     20  H   LIG    1       31.565  16.668 185.418  0.00  0.00    +0.155 HD
ATOM     21  O   LIG    1       31.392  19.763 185.069  0.00  0.00    -0.274 OA
BRANCH  19  22
ATOM     22  C   LIG    1       29.693  17.372 184.785  0.00  0.00    +0.041 A 
ATOM     23  C   LIG    1       28.702  17.457 185.814  0.00  0.00    +0.003 A 
ATOM     24  C   LIG    1       29.015  17.631 187.193  0.00  0.00    +0.010 A 
ATOM     25  C   LIG    1       28.020  17.717 188.139  0.00  0.00    +0.001 A 
ATOM     26  C   LIG    1       26.667  17.628 187.756  0.00  0.00    +0.001 A 
ATOM     27  C   LIG    1       26.333  17.448 186.436  0.00  0.00    +0.008 A 
ATOM     28  C   LIG    1       27.338  17.353 185.439  0.00  0.00    -0.016 A 
ATOM     29  C   LIG    1       26.999  17.151 184.076  0.00  0.00    +0.008 A 
ATOM     30  C   LIG    1       27.977  17.064 183.113  0.00  0.00    +0.002 A 
ATOM     31  C   LIG    1       29.334  17.180 183.463  0.00  0.00    +0.024 A 
ENDBRANCH  19  22
ENDBRANCH  17  18
ENDBRANCH   1  17
TORSDOF 7
ENDMDL
MODEL 7
REMARK VINA RESULT:      -8.4      2.120      3.446
REMARK  Name = ZINC000006086009
REMARK                            x       y       z     vdW  Elec       q    Type
REMARK                         _______ _______ _______ _____ _____    ______ ____
ROOT
ATOM      1  N   LIG    1       21.983  45.931 184.310  0.00  0.00    -0.286 NA
ATOM      2  C   LIG    1       22.693  44.632 184.188  0.00  0.00    +0.106 C 
ENDROOT
BRANCH   1   3
ATOM      3  C   LIG    1       21.969  46.667 182.978  0.00  0.00    +0.140 C 
ATOM      4  C   LIG    1       21.447  45.657 181.935  0.00  0.00    +0.034 C 
BRANCH   3   7
ATOM      5  N   LIG    1       21.679  49.117 182.828  0.00  0.00    -0.281 N 
ATOM      6  H   LIG    1       22.706  49.089 182.786  0.00  0.00    +0.155 HD
ATOM      7  C   LIG    1       21.043  47.908 182.962  0.00  0.00    +0.234 C 
ATOM      8  O   LIG    1       19.837  47.864 183.131  0.00  0.00    -0.274 OA
BRANCH   5  10
ATOM      9  C   LIG    1       21.112  51.240 181.862  0.00  0.00    +0.141 A 
ATOM     10  C   LIG    1       21.141  50.417 182.996  0.00  0.00    +0.076 A 
ATOM     11  C   LIG    1       20.647  50.881 184.215  0.00  0.00    +0.027 A 
ATOM     12  C   LIG    1       20.137  52.175 184.300  0.00  0.00    +0.002 A 
ATOM     13  C   LIG    1       20.115  52.999 183.175  0.00  0.00    +0.004 A 
ATOM     14  C   LIG    1       20.600  52.535 181.951  0.00  0.00    +0.047 A 
BRANCH   9  16
ATOM     15  C   LIG    1       21.660  51.463 179.416  0.00  0.00    +0.277 C 
ATOM     16  O   LIG    1       21.611  50.728 180.662  0.00  0.00    -0.493 OA
ENDBRANCH   9  16
ENDBRANCH   5  10
ENDBRANCH   3   7
ENDBRANCH   1   3
BRANCH   1  17
ATOM     17  C   LIG    1       22.578  46.744 185.463  0.00  0.00    +0.181 C 
BRANCH  17  18
ATOM     18  C   LIG    1       21.622  46.749 186.651  0.00  0.00    +0.231 C 
ATOM     19  N   LIG    1       22.104  46.134 187.778  0.00  0.00    -0.284 N 
ATOM     20  H   LIG    1       23.081  45.822 187.663  0.00  0.00    +0.155 HD
ATOM     21  O   LIG    1       20.510  47.233 186.600  0.00  0.00    -0.274 OA
BRANCH  19  22
ATOM     22  C   LIG    1       21.482  45.862 189.021  0.00  0.00    +0.041 A 
ATOM     23  C   LIG    1       22.163  44.979 189.918  0.00  0.00    +0.003 A 
ATOM     24  C   LIG    1       23.390  44.328 189.599  0.00  0.00    +0.010 A 
ATOM     25  C   LIG    1       24.006  43.497 190.505  0.00  0.00    +0.001 A 
ATOM     26  C   LIG    1       23.426  43.270 191.769  0.00  0.00    +0.001 A 
ATOM     27  C   LIG    1       22.238  43.874 192.102  0.00  0.00    +0.008 A 
ATOM     28  C   LIG    1       21.578  44.733 191.187  0.00  0.00    -0.016 A 
ATOM     29  C   LIG    1       20.343  45.346 191.520  0.00  0.00    +0.008 A 
ATOM     30  C   LIG    1       19.709  46.183 190.630  0.00  0.00    +0.002 A 
ATOM     31  C   LIG    1       20.281  46.450 189.373  0.00  0.00    +0.024 A 
ENDBRANCH  19  22
ENDBRANCH  17  18
ENDBRANCH   1  17
TORSDOF 7
ENDMDL
MODEL 8
REMARK VINA RESULT:      -8.3      1.947      6.757
REMARK  Name = ZINC000006086009
REMARK                            x       y       z     vdW  Elec       q    Type
REMARK                         _______ _______ _______ _____ _____    ______ ____
ROOT
ATOM      1  N   LIG    1       23.650  44.268 185.120  0.00  0.00    -0.286 NA
ATOM      2  C   LIG    1       24.492  43.244 184.450  0.00  0.00    +0.106 C 
ENDROOT
BRANCH   1   3
ATOM      3  C   LIG    1       22.960  43.685 186.345  0.00  0.00    +0.140 C 
ATOM      4  C   LIG    1       23.899  42.586 186.884  0.00  0.00    +0.034 C 
BRANCH   3   7
ATOM      5  N   LIG    1       22.106  44.228 188.600  0.00  0.00    -0.281 N 
ATOM      6  H   LIG    1       21.836  43.236 188.577  0.00  0.00    +0.155 HD
ATOM      7  C   LIG    1       22.718  44.718 187.474  0.00  0.00    +0.234 C 
ATOM      8  O   LIG    1       22.968  45.906 187.378  0.00  0.00    -0.274 OA
BRANCH   5  10
ATOM      9  C   LIG    1       21.813  44.443 190.973  0.00  0.00    +0.141 A 
ATOM     10  C   LIG    1       21.564  44.951 189.691  0.00  0.00    +0.076 A 
ATOM     11  C   LIG    1       20.822  46.122 189.530  0.00  0.00    +0.027 A 
ATOM     12  C   LIG    1       20.318  46.773 190.654  0.00  0.00    +0.002 A 
ATOM     13  C   LIG    1       20.558  46.265 191.930  0.00  0.00    +0.004 A 
ATOM     14  C   LIG    1       21.307  45.099 192.095  0.00  0.00    +0.047 A 
BRANCH   9  16
ATOM     15  C   LIG    1       23.912  43.214 191.615  0.00  0.00    +0.277 C 
ATOM     16  O   LIG    1       22.567  43.273 191.083  0.00  0.00    -0.493 OA
ENDBRANCH   9  16
ENDBRANCH   5  10
ENDBRANCH   3   7
ENDBRANCH   1   3
BRANCH   1  17
ATOM     17  C   LIG    1       22.689  44.896 184.106  0.00  0.00    +0.181 C 
BRANCH  17  18
ATOM     18  C   LIG    1       23.045  46.362 183.882  0.00  0.00    +0.231 C 
ATOM     19  N   LIG    1       22.457  47.235 184.759  0.00  0.00    -0.284 N 
ATOM     20  H   LIG    1       21.913  46.748 185.488  0.00  0.00    +0.155 HD
ATOM     21  O   LIG    1       23.770  46.734 182.982  0.00  0.00    -0.274 OA
BRANCH  19  22
ATOM     22  C   LIG    1       22.472  48.651 184.806  0.00  0.00    +0.041 A 
ATOM     23  C   LIG    1       21.211  49.325 184.757  0.00  0.00    +0.003 A 
ATOM     24  C   LIG    1       19.965  48.650 184.610  0.00  0.00    +0.010 A 
ATOM     25  C   LIG    1       18.781  49.349 184.579  0.00  0.00    +0.001 A 
ATOM     26  C   LIG    1       18.783  50.753 184.689  0.00  0.00    +0.001 A 
ATOM     27  C   LIG    1       19.968  51.435 184.820  0.00  0.00    +0.008 A 
ATOM     28  C   LIG    1       21.205  50.740 184.851  0.00  0.00    -0.016 A 
ATOM     29  C   LIG    1       22.434  51.440 184.970  0.00  0.00    +0.008 A 
ATOM     30  C   LIG    1       23.630  50.762 185.004  0.00  0.00    +0.002 A 
ATOM     31  C   LIG    1       23.655  49.358 184.927  0.00  0.00    +0.024 A 
ENDBRANCH  19  22
ENDBRANCH  17  18
ENDBRANCH   1  17
TORSDOF 7
ENDMDL
MODEL 9
REMARK VINA RESULT:      -8.3      1.637      3.220
REMARK  Name = ZINC000006086009
REMARK                            x       y       z     vdW  Elec       q    Type
REMARK                         _______ _______ _______ _____ _____    ______ ____
ROOT
ATOM      1  N   LIG    1       22.055  45.550 184.133  0.00  0.00    -0.286 NA
ATOM      2  C   LIG    1       22.251  44.150 183.675  0.00  0.00    +0.106 C 
ENDROOT
BRANCH   1   3
ATOM      3  C   LIG    1       22.299  46.531 182.996  0.00  0.00    +0.140 C 
ATOM      4  C   LIG    1       21.164  46.296 181.977  0.00  0.00    +0.034 C 
BRANCH   3   7
ATOM      5  N   LIG    1       21.009  48.550 183.602  0.00  0.00    -0.281 N 
ATOM      6  H   LIG    1       20.217  47.931 183.387  0.00  0.00    +0.155 HD
ATOM      7  C   LIG    1       22.262  48.016 183.435  0.00  0.00    +0.234 C 
ATOM      8  O   LIG    1       23.251  48.716 183.560  0.00  0.00    -0.274 OA
BRANCH   5  10
ATOM      9  C   LIG    1       19.658  50.182 184.732  0.00  0.00    +0.141 A 
ATOM     10  C   LIG    1       20.650  49.909 183.780  0.00  0.00    +0.076 A 
ATOM     11  C   LIG    1       21.245  50.950 183.066  0.00  0.00    +0.027 A 
ATOM     12  C   LIG    1       20.833  52.261 183.297  0.00  0.00    +0.002 A 
ATOM     13  C   LIG    1       19.840  52.533 184.237  0.00  0.00    +0.004 A 
ATOM     14  C   LIG    1       19.250  51.496 184.960  0.00  0.00    +0.047 A 
BRANCH   9  16
ATOM     15  C   LIG    1       18.435  49.218 186.708  0.00  0.00    +0.277 C 
ATOM     16  O   LIG    1       19.099  49.107 185.427  0.00  0.00    -0.493 OA
ENDBRANCH   9  16
ENDBRANCH   5  10
ENDBRANCH   3   7
ENDBRANCH   1   3
BRANCH   1  17
ATOM     17  C   LIG    1       22.910  45.815 185.376  0.00  0.00    +0.181 C 
BRANCH  17  18
ATOM     18  C   LIG    1       22.019  46.195 186.555  0.00  0.00    +0.231 C 
ATOM     19  N   LIG    1       22.325  45.563 187.732  0.00  0.00    -0.284 N 
ATOM     20  H   LIG    1       23.168  44.974 187.650  0.00  0.00    +0.155 HD
ATOM     21  O   LIG    1       21.093  46.974 186.457  0.00  0.00    -0.274 OA
BRANCH  19  22
ATOM     22  C   LIG    1       21.677  45.587 188.991  0.00  0.00    +0.041 A 
ATOM     23  C   LIG    1       22.238  44.787 190.036  0.00  0.00    +0.003 A 
ATOM     24  C   LIG    1       23.368  43.938 189.854  0.00  0.00    +0.010 A 
ATOM     25  C   LIG    1       23.872  43.199 190.899  0.00  0.00    +0.001 A 
ATOM     26  C   LIG    1       23.271  43.265 192.171  0.00  0.00    +0.001 A 
ATOM     27  C   LIG    1       22.173  44.064 192.376  0.00  0.00    +0.008 A 
ATOM     28  C   LIG    1       21.629  44.836 191.316  0.00  0.00    -0.016 A 
ATOM     29  C   LIG    1       20.485  45.651 191.518  0.00  0.00    +0.008 A 
ATOM     30  C   LIG    1       19.965  46.401 190.489  0.00  0.00    +0.002 A 
ATOM     31  C   LIG    1       20.563  46.376 189.217  0.00  0.00    +0.024 A 
ENDBRANCH  19  22
ENDBRANCH  17  18
ENDBRANCH   1  17
TORSDOF 7
ENDMDL
