REMARK VINA RESULT:      -7.0      0.000      0.000
REMARK  Name = ZINC000000622877
REMARK                            x       y       z     vdW  Elec       q    Type
REMARK                         _______ _______ _______ _____ _____    ______ ____
ROOT
ATOM      1  O   LIG    1       29.807  22.321 207.009  0.00  0.00    -0.274 OA
ATOM      2  C   LIG    1       28.663  22.362 207.434  0.00  0.00    +0.235 C 
ATOM      3  N   LIG    1       27.782  23.273 206.936  0.00  0.00    -0.219 N 
ATOM      4  H   LIG    1       26.773  23.203 207.146  0.00  0.00    +0.176 HD
ENDROOT
BRANCH   3   5
ATOM      5  N   LIG    1       28.167  24.223 205.876  0.00  0.00    -0.217 N 
ATOM      6  C   LIG    1       28.730  25.481 206.151  0.00  0.00    +0.079 A 
ATOM      7  C   LIG    1       29.155  26.069 205.005  0.00  0.00    +0.078 A 
ATOM      8  S   LIG    1       28.836  25.121 203.589  0.00  0.00    -0.033 S 
ATOM      9  C   LIG    1       28.112  23.867 204.547  0.00  0.00    +0.308 A 
ATOM     10  O   LIG    1       27.596  22.807 204.131  0.00  0.00    -0.258 OA
BRANCH   6  11
ATOM     11  C   LIG    1       28.806  26.011 207.505  0.00  0.00    +0.001 A 
ATOM     12  C   LIG    1       29.978  25.887 208.264  0.00  0.00    +0.010 A 
ATOM     13  C   LIG    1       30.043  26.388 209.559  0.00  0.00    +0.001 A 
ATOM     14  C   LIG    1       28.938  27.022 210.118  0.00  0.00    +0.000 A 
ATOM     15  C   LIG    1       27.768  27.154 209.376  0.00  0.00    +0.001 A 
ATOM     16  C   LIG    1       27.704  26.653 208.081  0.00  0.00    +0.010 A 
ENDBRANCH   6  11
ENDBRANCH   3   5
BRANCH   2  17
ATOM     17  C   LIG    1       28.172  21.413 208.510  0.00  0.00    +0.132 C 
BRANCH  17  18
ATOM     18  C   LIG    1       27.598  22.245 209.649  0.00  0.00    -0.039 A 
ATOM     19  C   LIG    1       28.432  23.047 210.429  0.00  0.00    +0.005 A 
ATOM     20  C   LIG    1       27.901  23.819 211.458  0.00  0.00    +0.015 A 
ATOM     21  C   LIG    1       26.533  23.797 211.716  0.00  0.00    +0.018 A 
ATOM     22 BR   LIG    1       25.814  24.851 213.113  0.00  0.00    -0.050 Br
ATOM     23  C   LIG    1       25.698  22.996 210.942  0.00  0.00    +0.015 A 
ATOM     24  C   LIG    1       26.228  22.222 209.915  0.00  0.00    +0.005 A 
ENDBRANCH  17  18
ENDBRANCH   2  17
TORSDOF 4
