REMARK VINA RESULT:      -9.1     34.138     36.304
REMARK  Name = ZINC000000603769
REMARK                            x       y       z     vdW  Elec       q    Type
REMARK                         _______ _______ _______ _____ _____    ______ ____
ROOT
ATOM      1  C   LIG    1       21.126  40.720 209.798  0.00  0.00    +0.139 A 
ATOM      2  N   LIG    1       21.609  41.755 209.070  0.00  0.00    -0.336 N 
ATOM      3  H   LIG    1       21.211  42.125 208.192  0.00  0.00    +0.167 HD
ATOM      4  C   LIG    1       22.704  42.250 209.666  0.00  0.00    +0.093 A 
ATOM      5  C   LIG    1       22.895  41.450 210.766  0.00  0.00    +0.099 A 
ATOM      6  N   LIG    1       21.898  40.527 210.845  0.00  0.00    -0.227 NA
ENDROOT
BRANCH   5   7
ATOM      7  C   LIG    1       23.993  41.513 211.722  0.00  0.00    +0.006 A 
ATOM      8  C   LIG    1       24.572  40.331 212.215  0.00  0.00    +0.059 A 
ATOM      9  C   LIG    1       25.602  40.426 213.138  0.00  0.00    +0.167 A 
ATOM     10  O   LIG    1       26.269  39.408 213.728  0.00  0.00    -0.453 OA
ATOM     11  C   LIG    1       27.270  40.035 214.621  0.00  0.00    +0.466 C 
ATOM     12  O   LIG    1       27.069  41.496 214.467  0.00  0.00    -0.453 OA
ATOM     13  C   LIG    1       26.071  41.642 213.570  0.00  0.00    +0.166 A 
ATOM     14  C   LIG    1       25.534  42.829 213.093  0.00  0.00    +0.050 A 
ATOM     15  C   LIG    1       24.495  42.757 212.163  0.00  0.00    +0.014 A 
ENDBRANCH   5   7
BRANCH   1  19
ATOM     16  C   LIG    1       17.600  38.521 208.730  0.00  0.00    +0.037 A 
ATOM     17  C   LIG    1       18.237  38.323 209.965  0.00  0.00    +0.014 A 
ATOM     18  C   LIG    1       19.379  39.041 210.297  0.00  0.00    +0.012 A 
ATOM     19  C   LIG    1       19.925  39.984 209.416  0.00  0.00    +0.017 A 
ATOM     20  C   LIG    1       19.282  40.187 208.183  0.00  0.00    +0.012 A 
ATOM     21  C   LIG    1       18.140  39.469 207.850  0.00  0.00    +0.014 A 
BRANCH  16  25
ATOM     22  N   LIG    1       16.456  36.460 208.031  0.00  0.00    -0.325 N 
ATOM     23  H   LIG    1       17.352  35.966 207.951  0.00  0.00    +0.145 HD
ATOM     24  H   LIG    1       15.584  36.014 207.719  0.00  0.00    +0.145 HD
ATOM     25  C   LIG    1       16.399  37.773 208.346  0.00  0.00    +0.242 C 
ATOM     26  O   LIG    1       15.283  38.258 208.267  0.00  0.00    -0.270 OA
ENDBRANCH  16  25
ENDBRANCH   1  19
BRANCH   4  27
ATOM     27  C   LIG    1       23.378  43.409 209.118  0.00  0.00    +0.089 A 
ATOM     28  N   LIG    1       22.778  44.606 209.278  0.00  0.00    -0.253 NA
ATOM     29  C   LIG    1       23.346  45.708 208.796  0.00  0.00    +0.111 A 
ATOM     30  C   LIG    1       24.565  45.674 208.126  0.00  0.00    +0.020 A 
ATOM     31  C   LIG    1       25.218  44.462 207.959  0.00  0.00    +0.004 A 
ATOM     32  C   LIG    1       24.615  43.323 208.467  0.00  0.00    +0.030 A 
ENDBRANCH   4  27
TORSDOF 4
