REMARK VINA RESULT:      -6.9     26.424     29.024
REMARK  Name = ZINC000000622958
REMARK                            x       y       z     vdW  Elec       q    Type
REMARK                         _______ _______ _______ _____ _____    ______ ____
ROOT
ATOM      1  C   LIG    1       22.846  44.553 210.784  0.00  0.00    +0.271 C 
ATOM      2  N   LIG    1       23.550  43.340 211.117  0.00  0.00    -0.157 N 
ATOM      3  C   LIG    1       22.791  42.273 211.008  0.00  0.00    +0.250 C 
ATOM      4  C   LIG    1       23.236  40.846 211.294  0.00  0.00    +0.124 C 
ATOM      5  C   LIG    1       23.326  40.104 209.940  0.00  0.00    +0.012 C 
ATOM      6  C   LIG    1       21.915  39.690 209.479  0.00  0.00    +0.004 C 
ATOM      7  C   LIG    1       20.969  40.838 209.068  0.00  0.00    +0.045 C 
ATOM      8  C   LIG    1       20.523  41.632 210.312  0.00  0.00    +0.236 C 
ATOM      9  N   LIG    1       21.595  42.600 210.588  0.00  0.00    -0.258 N 
ATOM     10  C   LIG    1       21.467  44.045 210.294  0.00  0.00    +0.323 C 
ENDROOT
BRANCH   1  11
ATOM     11  C   LIG    1       23.582  45.348 209.700  0.00  0.00    +0.034 A 
ATOM     12  C   LIG    1       24.139  46.600 210.017  0.00  0.00    +0.060 A 
ATOM     13  C   LIG    1       24.795  47.311 209.026  0.00  0.00    +0.167 A 
ATOM     14  O   LIG    1       25.379  48.521 209.149  0.00  0.00    -0.453 OA
ATOM     15  C   LIG    1       25.936  48.843 207.809  0.00  0.00    +0.466 C 
ATOM     16  O   LIG    1       25.592  47.680 206.958  0.00  0.00    -0.453 OA
ATOM     17  C   LIG    1       24.916  46.821 207.751  0.00  0.00    +0.166 A 
ATOM     18  C   LIG    1       24.384  45.590 207.402  0.00  0.00    +0.050 A 
ATOM     19  C   LIG    1       23.714  44.855 208.384  0.00  0.00    +0.014 A 
ENDBRANCH   1  11
BRANCH   2  20
ATOM     20  C   LIG    1       24.929  43.322 211.454  0.00  0.00    +0.124 A 
ATOM     21  C   LIG    1       25.319  43.561 212.772  0.00  0.00    +0.050 A 
ATOM     22  C   LIG    1       26.673  43.527 213.094  0.00  0.00    +0.024 A 
ATOM     23  C   LIG    1       27.620  43.255 212.103  0.00  0.00    +0.041 A 
ATOM     24 CL   LIG    1       29.302  43.213 212.508  0.00  0.00    -0.084 Cl
ATOM     25  C   LIG    1       27.217  43.018 210.784  0.00  0.00    +0.024 A 
ATOM     26  C   LIG    1       25.865  43.051 210.456  0.00  0.00    +0.050 A 
ENDBRANCH   2  20
BRANCH   1  27
ATOM     27  O   LIG    1       22.704  45.271 212.003  0.00  0.00    -0.347 OA
ATOM     28  H   LIG    1       22.016  45.941 211.874  0.00  0.00    +0.215 HD
ENDBRANCH   1  27
TORSDOF 3
