REMARK  Name = ZINC000049421769
REMARK                            x       y       z     vdW  Elec       q    Type
REMARK                         _______ _______ _______ _____ _____    ______ ____
ROOT
ATOM      1  C   LIG    1        6.132   1.404  -5.617  0.00  0.00    +0.088 C 
ATOM      2  C   LIG    1        6.334   1.160  -4.138  0.00  0.00    +0.135 A 
ATOM      3  N   LIG    1        6.582  -0.020  -3.525  0.00  0.00    -0.276 N 
ATOM      4  C   LIG    1        6.735  -1.373  -3.998  0.00  0.00    +0.075 A 
ATOM      5  C   LIG    1        6.585  -1.746  -5.344  0.00  0.00    +0.028 A 
ATOM      6  C   LIG    1        6.770  -3.072  -5.707  0.00  0.00    +0.002 A 
ATOM      7  C   LIG    1        7.101  -4.026  -4.742  0.00  0.00    +0.002 A 
ATOM      8  C   LIG    1        7.240  -3.657  -3.412  0.00  0.00    +0.030 A 
ATOM      9  C   LIG    1        7.051  -2.329  -3.014  0.00  0.00    +0.089 A 
ATOM     10  N   LIG    1        7.178  -2.011  -1.664  0.00  0.00    -0.235 NA
ATOM     11  C   LIG    1        7.013  -0.785  -1.286  0.00  0.00    +0.143 A 
ATOM     12  C   LIG    1        6.701   0.269  -2.217  0.00  0.00    +0.194 A 
ATOM     13  N   LIG    1        6.526   1.553  -2.028  0.00  0.00    -0.127 NA
ATOM     14  N   LIG    1        6.297   2.101  -3.246  0.00  0.00    -0.134 NA
ENDROOT
BRANCH  11  15
ATOM     15  S   LIG    1        7.185  -0.401   0.405  0.00  0.00    -0.093 S 
BRANCH  15  16
ATOM     16  C   LIG    1        8.277  -1.740   1.037  0.00  0.00    +0.172 C 
BRANCH  16  17
ATOM     17  C   LIG    1        9.645  -1.483   0.435  0.00  0.00    +0.227 C 
ATOM     18  N   LIG    1       10.174  -0.230   0.603  0.00  0.00    -0.284 N 
ATOM     19  H   LIG    1        9.558   0.477   1.025  0.00  0.00    +0.155 HD
ATOM     20  O   LIG    1       10.251  -2.325  -0.193  0.00  0.00    -0.275 OA
BRANCH  18  21
ATOM     21  C   LIG    1       11.401   0.220   0.064  0.00  0.00    +0.039 A 
ATOM     22  C   LIG    1       11.358   1.193  -0.947  0.00  0.00    -0.029 A 
ATOM     23  C   LIG    1       10.043   1.724  -1.494  0.00  0.00    +0.045 C 
ATOM     24  C   LIG    1       12.559   1.661  -1.473  0.00  0.00    +0.005 A 
ATOM     25  C   LIG    1       13.775   1.173  -1.003  0.00  0.00    +0.001 A 
ATOM     26  C   LIG    1       13.804   0.211   0.003  0.00  0.00    +0.005 A 
ATOM     27  C   LIG    1       12.621  -0.274   0.554  0.00  0.00    -0.029 A 
ATOM     28  C   LIG    1       12.694  -1.317   1.656  0.00  0.00    +0.045 C 
ENDBRANCH  18  21
ENDBRANCH  16  17
ENDBRANCH  15  16
ENDBRANCH  11  15
TORSDOF 4
