REMARK  Name = ZINC000009527204
REMARK                            x       y       z     vdW  Elec       q    Type
REMARK                         _______ _______ _______ _____ _____    ______ ____
ROOT
ATOM      1  O   LIG    1        3.272  -0.473   1.221  0.00  0.00    -0.267 OA
ATOM      2  C   LIG    1        3.198   0.573   0.577  0.00  0.00    +0.282 C 
ATOM      3  N   LIG    1        3.396   0.470  -0.796  0.00  0.00    -0.292 N 
ATOM      4  C   LIG    1        2.641   1.297  -1.772  0.00  0.00    +0.127 C 
ATOM      5  C   LIG    1        1.450   0.434  -2.263  0.00  0.00    +0.127 C 
ATOM      6  N   LIG    1        2.021  -0.805  -2.851  0.00  0.00    -0.294 N 
ATOM      7  C   LIG    1        2.362  -0.855  -4.198  0.00  0.00    +0.253 C 
ATOM      8  O   LIG    1        3.407  -1.435  -4.487  0.00  0.00    -0.269 OA
ATOM      9  C   LIG    1        2.773  -1.629  -1.864  0.00  0.00    +0.127 C 
ATOM     10  C   LIG    1        3.968  -0.772  -1.384  0.00  0.00    +0.127 C 
ENDROOT
BRANCH   7  11
ATOM     11  C   LIG    1        1.513  -0.220  -5.192  0.00  0.00    +0.075 A 
ATOM     12  S   LIG    1        2.189   0.479  -6.631  0.00  0.00    -0.083 S 
ATOM     13  C   LIG    1        0.625   0.963  -7.183  0.00  0.00    +0.024 A 
ATOM     14  C   LIG    1        0.330   1.697  -8.389  0.00  0.00    -0.001 A 
ATOM     15  C   LIG    1       -0.925   2.227  -8.520  0.00  0.00    -0.002 A 
ATOM     16  C   LIG    1       -1.989   2.156  -7.434  0.00  0.00    +0.048 C 
ATOM     17  C   LIG    1       -1.830   0.824  -6.644  0.00  0.00    +0.041 C 
ATOM     18  S   LIG    1       -1.121   3.064 -10.018  0.00  0.00    -0.101 S 
ATOM     19  C   LIG    1        0.509   2.694 -10.465  0.00  0.00    +0.046 A 
ATOM     20  C   LIG    1        1.150   1.968  -9.504  0.00  0.00    +0.017 A 
ATOM     21  C   LIG    1       -0.361   0.579  -6.307  0.00  0.00    -0.032 A 
ATOM     22  C   LIG    1        0.138  -0.089  -5.186  0.00  0.00    +0.025 A 
ENDBRANCH   7  11
BRANCH   2  23
ATOM     23  C   LIG    1        2.901   1.850   1.228  0.00  0.00    +0.189 A 
ATOM     24  O   LIG    1        3.128   3.079   0.642  0.00  0.00    -0.458 OA
ATOM     25  C   LIG    1        2.768   4.033   1.527  0.00  0.00    +0.196 A 
ATOM     26  C   LIG    1        2.320   3.451   2.664  0.00  0.00    +0.042 A 
ATOM     27  C   LIG    1        2.406   2.071   2.480  0.00  0.00    +0.054 A 
ENDBRANCH   2  23
TORSDOF 2
