REMARK  Name = ZINC000006083105
REMARK                            x       y       z     vdW  Elec       q    Type
REMARK                         _______ _______ _______ _____ _____    ______ ____
ROOT
ATOM      1  C   LIG    1       10.642  -4.696  -3.753  0.00  0.00    +0.083 C 
ENDROOT
BRANCH   1   2
ATOM      2  C   LIG    1       11.960  -3.961  -3.898  0.00  0.00    +0.111 A 
ATOM      3  N   LIG    1       12.347  -3.195  -2.818  0.00  0.00    -0.310 N 
ATOM      4  H   LIG    1       11.727  -3.097  -2.002  0.00  0.00    +0.170 HD
ATOM      5  C   LIG    1       13.490  -2.456  -2.807  0.00  0.00    +0.260 A 
ATOM      6  O   LIG    1       13.689  -1.809  -1.779  0.00  0.00    -0.267 OA
ATOM      7  C   LIG    1       14.305  -2.513  -3.985  0.00  0.00    +0.075 A 
ATOM      8  C   LIG    1       15.536  -1.875  -4.282  0.00  0.00    -0.023 A 
ATOM      9  C   LIG    1       16.267  -0.933  -3.341  0.00  0.00    +0.037 C 
ATOM     10  C   LIG    1       17.713  -0.775  -3.849  0.00  0.00    +0.005 C 
ATOM     11  C   LIG    1       17.752  -0.475  -5.359  0.00  0.00    +0.005 C 
ATOM     12  C   LIG    1       17.264  -1.682  -6.181  0.00  0.00    +0.043 C 
ATOM     13  C   LIG    1       15.985  -2.172  -5.538  0.00  0.00    -0.004 A 
ATOM     14  S   LIG    1       14.920  -3.254  -6.375  0.00  0.00    -0.073 S 
ATOM     15  C   LIG    1       13.853  -3.293  -5.021  0.00  0.00    +0.116 A 
ATOM     16  N   LIG    1       12.664  -4.017  -4.967  0.00  0.00    -0.227 NA
ENDBRANCH   1   2
BRANCH   1  17
ATOM     17  C   LIG    1        9.519  -3.767  -4.287  0.00  0.00    +0.104 C 
BRANCH  17  20
ATOM     18  N   LIG    1        9.529  -1.315  -4.123  0.00  0.00    -0.285 N 
ATOM     19  H   LIG    1        9.459  -1.369  -5.145  0.00  0.00    +0.155 HD
ATOM     20  C   LIG    1        9.511  -2.505  -3.449  0.00  0.00    +0.218 C 
ATOM     21  O   LIG    1        9.518  -2.539  -2.235  0.00  0.00    -0.275 OA
BRANCH  18  25
ATOM     22  C   LIG    1        9.765   2.559  -2.557  0.00  0.00    +0.121 A 
ATOM     23  C   LIG    1        8.969   2.300  -3.677  0.00  0.00    +0.047 A 
ATOM     24  C   LIG    1        8.896   1.004  -4.180  0.00  0.00    +0.027 A 
ATOM     25  C   LIG    1        9.615  -0.019  -3.557  0.00  0.00    +0.034 A 
ATOM     26  C   LIG    1       10.416   0.243  -2.441  0.00  0.00    +0.027 A 
ATOM     27  C   LIG    1       10.487   1.539  -1.941  0.00  0.00    +0.047 A 
BRANCH  22  28
ATOM     28  O   LIG    1        9.873   3.822  -2.014  0.00  0.00    -0.492 OA
BRANCH  28  30
ATOM     29  C   LIG    1        9.568   6.104  -1.527  0.00  0.00    +0.048 C 
ATOM     30  C   LIG    1        9.158   4.984  -2.481  0.00  0.00    +0.225 C 
ENDBRANCH  28  30
ENDBRANCH  22  28
ENDBRANCH  18  25
ENDBRANCH  17  20
ENDBRANCH   1  17
TORSDOF 6
