REMARK  Name = ZINC000000538069
REMARK                            x       y       z     vdW  Elec       q    Type
REMARK                         _______ _______ _______ _____ _____    ______ ____
ROOT
ATOM      1  C   LIG    1        7.605  -6.666  -1.175  0.00  0.00    +0.248 C 
ATOM      2  N   LIG    1        6.843  -7.466  -0.376  0.00  0.00    -0.307 N 
ATOM      3  H   LIG    1        6.720  -8.439  -0.703  0.00  0.00    +0.149 HD
ATOM      4  O   LIG    1        7.562  -5.462  -0.934  0.00  0.00    -0.270 OA
ENDROOT
BRANCH   1   9
ATOM      5  C   LIG    1       10.099  -8.236  -4.298  0.00  0.00    +0.049 A 
ATOM      6  C   LIG    1       10.219  -6.898  -3.867  0.00  0.00    +0.063 A 
ATOM      7 CL   LIG    1       11.397  -5.843  -4.577  0.00  0.00    -0.082 Cl
ATOM      8  C   LIG    1        9.395  -6.418  -2.857  0.00  0.00    +0.038 A 
ATOM      9  C   LIG    1        8.432  -7.241  -2.244  0.00  0.00    +0.080 A 
ATOM     10  C   LIG    1        8.317  -8.575  -2.706  0.00  0.00    +0.134 A 
ATOM     11  C   LIG    1        9.141  -9.068  -3.720  0.00  0.00    +0.070 A 
BRANCH   5  13
ATOM     12  C   LIG    1       11.450 -10.087  -5.259  0.00  0.00    +0.125 C 
ATOM     13  N   LIG    1       10.943  -8.712  -5.319  0.00  0.00    -0.346 N 
ATOM     14  H   LIG    1       11.670  -8.018  -5.575  0.00  0.00    +0.146 HD
ENDBRANCH   5  13
BRANCH  10  15
ATOM     15  O   LIG    1        7.365  -9.419  -2.157  0.00  0.00    -0.494 OA
ATOM     16  C   LIG    1        7.005 -10.759  -2.567  0.00  0.00    +0.277 C 
ENDBRANCH  10  15
ENDBRANCH   1   9
BRANCH   2  17
ATOM     17  C   LIG    1        5.735  -6.986   0.454  0.00  0.00    +0.091 C 
ATOM     18  C   LIG    1        4.371  -7.338  -0.181  0.00  0.00    +0.074 C 
ATOM     19  C   LIG    1        4.311  -6.995  -1.681  0.00  0.00    +0.026 C 
ATOM     20  N   LIG    1        4.286  -8.798  -0.042  0.00  0.00    -0.294 NA
ATOM     21  C   LIG    1        5.086  -9.204   1.141  0.00  0.00    +0.087 C 
ATOM     22  C   LIG    1        5.702  -7.895   1.676  0.00  0.00    +0.039 C 
BRANCH  20  23
ATOM     23  C   LIG    1        2.890  -9.276   0.036  0.00  0.00    +0.120 C 
BRANCH  23  24
ATOM     24  C   LIG    1        2.958 -10.773  -0.213  0.00  0.00    -0.033 A 
ATOM     25  C   LIG    1        2.629 -11.681   0.793  0.00  0.00    +0.005 A 
ATOM     26  C   LIG    1        2.690 -13.051   0.550  0.00  0.00    +0.000 A 
ATOM     27  C   LIG    1        3.080 -13.520  -0.701  0.00  0.00    +0.000 A 
ATOM     28  C   LIG    1        3.409 -12.619  -1.708  0.00  0.00    +0.000 A 
ATOM     29  C   LIG    1        3.349 -11.251  -1.464  0.00  0.00    +0.005 A 
ENDBRANCH  23  24
ENDBRANCH  20  23
ENDBRANCH   2  17
TORSDOF 6
