REMARK  Name = ZINC000049399659
REMARK                            x       y       z     vdW  Elec       q    Type
REMARK                         _______ _______ _______ _____ _____    ______ ____
ROOT
ATOM      1  C   LIG    1       -0.631  -0.557   2.139  0.00  0.00    +0.173 C 
ENDROOT
BRANCH   1   4
ATOM      2  N   LIG    1        1.564   0.377   1.539  0.00  0.00    -0.282 N 
ATOM      3  H   LIG    1        1.259   1.141   2.161  0.00  0.00    +0.155 HD
ATOM      4  C   LIG    1        0.631  -0.602   1.305  0.00  0.00    +0.228 C 
ATOM      5  O   LIG    1        0.813  -1.455   0.461  0.00  0.00    -0.275 OA
BRANCH   2   7
ATOM      6  C   LIG    1        3.446   1.829   1.188  0.00  0.00    +0.141 A 
ATOM      7  C   LIG    1        2.855   0.574   0.970  0.00  0.00    +0.077 A 
ATOM      8  C   LIG    1        3.538  -0.407   0.248  0.00  0.00    +0.047 A 
ATOM      9  C   LIG    1        4.803  -0.118  -0.266  0.00  0.00    +0.043 A 
ATOM     10 CL   LIG    1        5.662  -1.321  -1.166  0.00  0.00    -0.083 Cl
ATOM     11  C   LIG    1        5.388   1.135  -0.059  0.00  0.00    +0.024 A 
ATOM     12  C   LIG    1        4.711   2.110   0.670  0.00  0.00    +0.049 A 
BRANCH   6  14
ATOM     13  C   LIG    1        3.152   4.144   2.146  0.00  0.00    +0.277 C 
ATOM     14  O   LIG    1        2.738   2.774   1.934  0.00  0.00    -0.493 OA
ENDBRANCH   6  14
ENDBRANCH   2   7
ENDBRANCH   1   4
BRANCH   1  15
ATOM     15  S   LIG    1       -1.513   0.978   1.662  0.00  0.00    -0.077 S 
BRANCH  15  16
ATOM     16  C   LIG    1       -2.937   0.917   2.653  0.00  0.00    +0.190 A 
ATOM     17  N   LIG    1       -3.845   1.881   2.495  0.00  0.00    -0.207 NA
ATOM     18  C   LIG    1       -4.933   1.838   3.245  0.00  0.00    +0.126 A 
ATOM     19  C   LIG    1       -5.129   0.818   4.170  0.00  0.00    +0.063 A 
ATOM     20  C   LIG    1       -4.150  -0.144   4.291  0.00  0.00    +0.117 A 
ATOM     21  N   LIG    1       -3.060  -0.091   3.538  0.00  0.00    -0.230 NA
BRANCH  18  22
ATOM     22  N   LIG    1       -5.890   2.835   3.089  0.00  0.00    -0.315 N 
ATOM     23  C   LIG    1       -6.213   3.621   4.295  0.00  0.00    +0.106 C 
ATOM     24  C   LIG    1       -7.654   4.128   4.101  0.00  0.00    +0.019 C 
ATOM     25  C   LIG    1       -7.682   5.005   2.837  0.00  0.00    +0.003 C 
ATOM     26  C   LIG    1       -7.265   4.168   1.616  0.00  0.00    +0.019 C 
ATOM     27  C   LIG    1       -5.835   3.645   1.851  0.00  0.00    +0.106 C 
ENDBRANCH  18  22
ENDBRANCH  15  16
ENDBRANCH   1  15
TORSDOF 6
