REMARK  Name = ZINC000022625070
REMARK                            x       y       z     vdW  Elec       q    Type
REMARK                         _______ _______ _______ _____ _____    ______ ____
ROOT
ATOM      1  C   LIG    1       10.532  -5.047  -2.846  0.00  0.00    +0.171 A 
ATOM      2  C   LIG    1       11.426  -5.861  -2.150  0.00  0.00    +0.032 A 
ATOM      3  C   LIG    1       11.281  -6.774  -0.945  0.00  0.00    +0.046 C 
ATOM      4  C   LIG    1       12.314  -7.927  -1.081  0.00  0.00    +0.040 C 
ATOM      5  C   LIG    1       13.713  -7.397  -1.431  0.00  0.00    -0.036 A 
ATOM      6  C   LIG    1       13.847  -6.300  -2.299  0.00  0.00    +0.027 A 
ATOM      7  C   LIG    1       15.115  -5.868  -2.694  0.00  0.00    +0.057 A 
ATOM      8  C   LIG    1       16.243  -6.523  -2.202  0.00  0.00    +0.121 A 
ATOM      9  C   LIG    1       16.119  -7.600  -1.328  0.00  0.00    +0.046 A 
ATOM     10  C   LIG    1       14.853  -8.038  -0.949  0.00  0.00    +0.008 A 
ATOM     11  C   LIG    1       12.624  -5.657  -2.714  0.00  0.00    +0.171 A 
ATOM     12  O   LIG    1       12.465  -4.765  -3.700  0.00  0.00    -0.354 OA
ATOM     13  N   LIG    1       11.190  -4.396  -3.780  0.00  0.00    -0.073 NA
ENDROOT
BRANCH   1  16
ATOM     14  N   LIG    1        8.378  -4.073  -3.415  0.00  0.00    -0.307 N 
ATOM     15  H   LIG    1        8.924  -3.550  -4.111  0.00  0.00    +0.149 HD
ATOM     16  C   LIG    1        9.093  -4.905  -2.597  0.00  0.00    +0.266 C 
ATOM     17  O   LIG    1        8.484  -5.478  -1.695  0.00  0.00    -0.268 OA
BRANCH  14  18
ATOM     18  C   LIG    1        7.011  -3.663  -3.159  0.00  0.00    +0.070 C 
ATOM     19  C   LIG    1        6.391  -3.364  -4.524  0.00  0.00    +0.028 C 
BRANCH  18  20
ATOM     20  C   LIG    1        7.046  -2.444  -2.219  0.00  0.00    +0.023 C 
BRANCH  20  21
ATOM     21  C   LIG    1        7.831  -1.217  -2.734  0.00  0.00    +0.017 C 
BRANCH  21  22
ATOM     22  C   LIG    1        7.789  -0.163  -1.601  0.00  0.00    +0.084 C 
BRANCH  22  23
ATOM     23  N   LIG    1        8.643   1.001  -1.956  0.00  0.00    -0.303 NA
BRANCH  23  25
ATOM     24  C   LIG    1       10.461   1.217  -0.441  0.00  0.00    +0.020 C 
ATOM     25  C   LIG    1       10.092   0.720  -1.841  0.00  0.00    +0.081 C 
ENDBRANCH  23  25
BRANCH  23  26
ATOM     26  C   LIG    1        8.267   1.638  -3.233  0.00  0.00    +0.081 C 
ATOM     27  C   LIG    1        8.553   3.132  -3.038  0.00  0.00    +0.020 C 
ENDBRANCH  23  26
ENDBRANCH  22  23
ENDBRANCH  21  22
ENDBRANCH  20  21
ENDBRANCH  18  20
ENDBRANCH  14  18
ENDBRANCH   1  16
BRANCH   8  28
ATOM     28  O   LIG    1       17.519  -6.141  -2.550  0.00  0.00    -0.495 OA
ATOM     29  C   LIG    1       17.845  -5.063  -3.457  0.00  0.00    +0.277 C 
ENDBRANCH   8  28
TORSDOF 9
