REMARK  Name = ZINC000006087400
REMARK                            x       y       z     vdW  Elec       q    Type
REMARK                         _______ _______ _______ _____ _____    ______ ____
ROOT
ATOM      1  C   LIG    1        1.680  -3.597  -2.961  0.00  0.00    +0.214 C 
ENDROOT
BRANCH   1   7
ATOM      2  C   LIG    1        5.568  -2.490  -4.887  0.00  0.00    +0.010 C 
ATOM      3  C   LIG    1        6.272  -2.544  -3.513  0.00  0.00    +0.018 C 
ATOM      4  C   LIG    1        5.252  -2.595  -2.327  0.00  0.00    +0.115 C 
ATOM      5  C   LIG    1        4.148  -3.646  -2.493  0.00  0.00    +0.247 C 
ATOM      6  O   LIG    1        4.202  -4.863  -2.506  0.00  0.00    -0.273 OA
ATOM      7  N   LIG    1        2.966  -2.981  -2.619  0.00  0.00    -0.215 N 
ATOM      8  C   LIG    1        3.168  -1.629  -2.546  0.00  0.00    +0.310 C 
ATOM      9  O   LIG    1        2.309  -0.779  -2.691  0.00  0.00    -0.252 OA
ATOM     10  N   LIG    1        4.467  -1.370  -2.302  0.00  0.00    -0.285 N 
ATOM     11  H   LIG    1        4.837  -0.435  -2.508  0.00  0.00    +0.151 HD
ATOM     12  C   LIG    1        5.981  -2.701  -0.963  0.00  0.00    +0.035 C 
ATOM     13  C   LIG    1        6.909  -3.930  -0.960  0.00  0.00    +0.003 C 
ATOM     14  C   LIG    1        7.915  -3.878  -2.116  0.00  0.00    +0.000 C 
ATOM     15  C   LIG    1        7.190  -3.780  -3.464  0.00  0.00    +0.006 C 
ENDBRANCH   1   7
BRANCH   1  16
ATOM     16  C   LIG    1        1.385  -3.259  -4.424  0.00  0.00    +0.238 C 
ATOM     17  N   LIG    1        0.173  -2.684  -4.776  0.00  0.00    -0.267 N 
ATOM     18  O   LIG    1        2.204  -3.481  -5.304  0.00  0.00    -0.274 OA
BRANCH  17  19
ATOM     19  C   LIG    1       -0.882  -2.512  -3.849  0.00  0.00    +0.010 C 
ATOM     20  C   LIG    1       -1.234  -1.072  -3.522  0.00  0.00    +0.051 C 
ATOM     21  C   LIG    1       -2.012  -1.072  -2.187  0.00  0.00    +0.006 C 
ATOM     22  C   LIG    1       -3.186  -2.062  -2.330  0.00  0.00    +0.004 C 
ATOM     23  C   LIG    1       -2.615  -3.497  -2.308  0.00  0.00    +0.029 C 
ATOM     24  C   LIG    1       -1.502  -3.590  -3.335  0.00  0.00    -0.008 C 
ENDBRANCH  17  19
BRANCH  17  25
ATOM     25  C   LIG    1       -0.067  -2.298  -6.179  0.00  0.00    +0.187 C 
BRANCH  25  26
ATOM     26  C   LIG    1       -0.722  -3.499  -6.831  0.00  0.00    +0.122 A 
ATOM     27  O   LIG    1       -2.066  -3.519  -7.054  0.00  0.00    -0.466 OA
ATOM     28  C   LIG    1       -2.362  -4.710  -7.632  0.00  0.00    +0.195 A 
ATOM     29  C   LIG    1       -1.231  -5.436  -7.776  0.00  0.00    +0.041 A 
ATOM     30  C   LIG    1       -0.184  -4.663  -7.263  0.00  0.00    +0.046 A 
ENDBRANCH  25  26
ENDBRANCH  17  25
ENDBRANCH   1  16
TORSDOF 5
