REMARK  Name = ZINC000000593415
REMARK                            x       y       z     vdW  Elec       q    Type
REMARK                         _______ _______ _______ _____ _____    ______ ____
ROOT
ATOM      1  C   LIG    1        7.509  -0.525   5.406  0.00  0.00    -0.043 A 
ATOM      2  C   LIG    1        7.648  -0.367   6.787  0.00  0.00    +0.006 A 
ATOM      3  C   LIG    1        8.627  -1.062   7.489  0.00  0.00    +0.023 A 
ATOM      4  C   LIG    1        9.476  -1.931   6.807  0.00  0.00    +0.034 A 
ATOM      5  C   LIG    1        9.361  -2.093   5.427  0.00  0.00    +0.023 A 
ATOM      6  C   LIG    1        8.379  -1.395   4.734  0.00  0.00    +0.006 A 
ENDROOT
BRANCH   4   7
ATOM      7  N   LIG    1       10.462  -2.612   7.559  0.00  0.00    -0.282 N 
ATOM      8  H   LIG    1       10.806  -2.141   8.402  0.00  0.00    +0.155 HD
ATOM      9  C   LIG    1       10.930  -3.894   7.342  0.00  0.00    +0.248 C 
ATOM     10  O   LIG    1       10.395  -4.584   6.486  0.00  0.00    -0.270 OA
BRANCH   9  11
ATOM     11  C   LIG    1       12.026  -4.387   8.182  0.00  0.00    +0.042 A 
ATOM     12  C   LIG    1       12.943  -3.511   8.795  0.00  0.00    +0.051 A 
ATOM     13  C   LIG    1       13.958  -4.028   9.592  0.00  0.00    +0.127 A 
ATOM     14  F   LIG    1       14.821  -3.171  10.175  0.00  0.00    -0.205 F 
ATOM     15  C   LIG    1       14.117  -5.389   9.808  0.00  0.00    +0.076 A 
ATOM     16  C   LIG    1       13.214  -6.238   9.187  0.00  0.00    +0.127 A 
ATOM     17  F   LIG    1       13.341  -7.568   9.372  0.00  0.00    -0.205 F 
ATOM     18  C   LIG    1       12.181  -5.769   8.383  0.00  0.00    +0.051 A 
ENDBRANCH   9  11
ENDBRANCH   4   7
BRANCH   1  19
ATOM     19  C   LIG    1        6.377   0.225   4.693  0.00  0.00    +0.031 C 
ATOM     20  C   LIG    1        6.735   0.538   3.228  0.00  0.00    +0.014 C 
BRANCH  19  21
ATOM     21  C   LIG    1        5.070  -0.591   4.823  0.00  0.00    +0.113 C 
BRANCH  21  22
ATOM     22  N   LIG    1        5.348  -1.954   4.386  0.00  0.00    -0.194 NA
ATOM     23  H   LIG    1        6.206  -2.257   4.851  0.00  0.00    +0.148 HD
BRANCH  22  24
ATOM     24  S   LIG    1        4.146  -3.048   4.522  0.00  0.00    +0.032 S 
ATOM     25  O   LIG    1        4.027  -3.402   5.892  0.00  0.00    -0.158 OA
ATOM     26  O   LIG    1        2.984  -2.533   3.886  0.00  0.00    -0.158 OA
BRANCH  24  28
ATOM     27  C   LIG    1        6.160  -4.980   3.914  0.00  0.00    +0.033 C 
ATOM     28  C   LIG    1        4.723  -4.490   3.596  0.00  0.00    +0.142 C 
ATOM     29  C   LIG    1        3.844  -5.760   3.719  0.00  0.00    +0.033 C 
ENDBRANCH  24  28
ENDBRANCH  22  24
ENDBRANCH  21  22
ENDBRANCH  19  21
ENDBRANCH   1  19
TORSDOF 7
