REMARK  Name = ZINC000000603759
REMARK                            x       y       z     vdW  Elec       q    Type
REMARK                         _______ _______ _______ _____ _____    ______ ____
ROOT
ATOM      1  C   LIG    1        5.316   2.336  -0.132  0.00  0.00    +0.139 A 
ATOM      2  C   LIG    1        6.722   2.495  -0.272  0.00  0.00    +0.050 A 
ATOM      3  C   LIG    1        7.818   1.645  -0.506  0.00  0.00    +0.015 A 
ATOM      4  C   LIG    1        9.070   2.224  -0.572  0.00  0.00    +0.020 A 
ATOM      5  C   LIG    1        9.224   3.621  -0.406  0.00  0.00    +0.113 A 
ATOM      6  N   LIG    1        8.203   4.427  -0.188  0.00  0.00    -0.236 NA
ATOM      7  C   LIG    1        6.980   3.839  -0.134  0.00  0.00    +0.159 A 
ATOM      8  N   LIG    1        5.767   4.432   0.069  0.00  0.00    -0.241 N 
ATOM      9  N   LIG    1        4.753   3.523   0.077  0.00  0.00    -0.165 NA
ENDROOT
BRANCH   1  14
ATOM     10  C   LIG    1        2.590  -0.074  -0.339  0.00  0.00    +0.128 A 
ATOM     11  C   LIG    1        3.238  -1.316  -0.333  0.00  0.00    +0.040 A 
ATOM     12  C   LIG    1        4.621  -1.271  -0.252  0.00  0.00    +0.125 A 
ATOM     13  N   LIG    1        5.263  -0.115  -0.188  0.00  0.00    -0.234 NA
ATOM     14  C   LIG    1        4.579   1.061  -0.203  0.00  0.00    +0.183 A 
ATOM     15  N   LIG    1        3.236   1.066  -0.279  0.00  0.00    -0.211 NA
BRANCH  11  16
ATOM     16  C   LIG    1        2.522  -2.581  -0.411  0.00  0.00    -0.010 A 
ATOM     17  C   LIG    1        1.633  -2.857  -1.451  0.00  0.00    +0.028 A 
ATOM     18  C   LIG    1        0.969  -4.076  -1.497  0.00  0.00    +0.111 A 
ATOM     19  N   LIG    1        1.155  -5.009  -0.564  0.00  0.00    -0.263 NA
ATOM     20  C   LIG    1        1.998  -4.777   0.441  0.00  0.00    +0.111 A 
ATOM     21  C   LIG    1        2.695  -3.581   0.548  0.00  0.00    +0.028 A 
ENDBRANCH  11  16
BRANCH  10  22
ATOM     22  N   LIG    1        1.244   0.068  -0.390  0.00  0.00    -0.343 N 
ATOM     23  H   LIG    1        0.676  -0.719  -0.053  0.00  0.00    +0.144 HD
ATOM     24  H   LIG    1        0.921   1.019  -0.163  0.00  0.00    +0.144 HD
ENDBRANCH  10  22
ENDBRANCH   1  14
BRANCH   8  25
ATOM     25  C   LIG    1        5.552   5.865   0.248  0.00  0.00    +0.183 C 
BRANCH  25  26
ATOM     26  C   LIG    1        5.422   6.480  -1.140  0.00  0.00    +0.009 A 
ATOM     27  C   LIG    1        6.292   7.480  -1.572  0.00  0.00    +0.128 A 
ATOM     28  F   LIG    1        7.270   7.929  -0.746  0.00  0.00    -0.205 F 
ATOM     29  C   LIG    1        6.197   8.062  -2.830  0.00  0.00    +0.039 A 
ATOM     30  C   LIG    1        5.192   7.635  -3.693  0.00  0.00    +0.003 A 
ATOM     31  C   LIG    1        4.304   6.641  -3.285  0.00  0.00    +0.000 A 
ATOM     32  C   LIG    1        4.416   6.068  -2.018  0.00  0.00    +0.008 A 
ENDBRANCH  25  26
ENDBRANCH   8  25
TORSDOF 5
