REMARK  Name = ZINC000009107243
REMARK                            x       y       z     vdW  Elec       q    Type
REMARK                         _______ _______ _______ _____ _____    ______ ____
ROOT
ATOM      1  N   LIG    1        7.927   5.388   2.558  0.00  0.00    -0.285 N 
ATOM      2  H   LIG    1        7.629   6.371   2.625  0.00  0.00    +0.155 HD
ATOM      3  C   LIG    1        9.179   5.133   3.058  0.00  0.00    +0.222 C 
ATOM      4  O   LIG    1        9.575   3.994   3.195  0.00  0.00    -0.275 OA
ENDROOT
BRANCH   1   9
ATOM      5  N   LIG    1        4.014   1.789   0.731  0.00  0.00    -0.271 N 
ATOM      6  C   LIG    1        5.000   2.711   1.209  0.00  0.00    +0.040 A 
ATOM      7  C   LIG    1        4.635   3.906   1.843  0.00  0.00    +0.025 A 
ATOM      8  C   LIG    1        5.621   4.777   2.289  0.00  0.00    +0.025 A 
ATOM      9  C   LIG    1        6.966   4.453   2.103  0.00  0.00    +0.034 A 
ATOM     10  C   LIG    1        7.334   3.263   1.469  0.00  0.00    +0.028 A 
ATOM     11  C   LIG    1        6.352   2.381   1.026  0.00  0.00    -0.024 A 
ATOM     12  C   LIG    1        6.741   1.085   0.341  0.00  0.00    +0.046 C 
ATOM     13  C   LIG    1        5.767   0.023   0.881  0.00  0.00    +0.101 C 
ATOM     14  C   LIG    1        4.376   0.474   0.492  0.00  0.00    +0.220 C 
ATOM     15  O   LIG    1        3.585  -0.294  -0.025  0.00  0.00    -0.275 OA
BRANCH   5  16
ATOM     16  C   LIG    1        2.641   2.225   0.403  0.00  0.00    +0.113 C 
BRANCH  16  18
ATOM     17  C   LIG    1        0.356   2.378   1.343  0.00  0.00    +0.005 C 
ATOM     18  C   LIG    1        1.778   1.878   1.633  0.00  0.00    +0.016 C 
ENDBRANCH  16  18
ENDBRANCH   5  16
ENDBRANCH   1   9
BRANCH   3  19
ATOM     19  C   LIG    1       10.040   6.325   3.434  0.00  0.00    +0.131 C 
BRANCH  19  20
ATOM     20  C   LIG    1        9.143   7.370   4.084  0.00  0.00    -0.035 A 
ATOM     21  C   LIG    1        8.849   8.562   3.419  0.00  0.00    +0.053 A 
ATOM     22  C   LIG    1        8.000   9.503   4.007  0.00  0.00    +0.162 A 
ATOM     23  C   LIG    1        7.443   9.246   5.273  0.00  0.00    +0.161 A 
ATOM     24  C   LIG    1        7.744   8.060   5.934  0.00  0.00    +0.049 A 
ATOM     25  C   LIG    1        8.590   7.126   5.343  0.00  0.00    +0.008 A 
BRANCH  22  26
ATOM     26  O   LIG    1        7.710  10.683   3.331  0.00  0.00    -0.491 OA
ATOM     27  C   LIG    1        8.301  11.132   2.090  0.00  0.00    +0.277 C 
ENDBRANCH  22  26
BRANCH  23  28
ATOM     28  O   LIG    1        6.584  10.100   5.955  0.00  0.00    -0.491 OA
ATOM     29  C   LIG    1        6.141  11.418   5.562  0.00  0.00    +0.277 C 
ENDBRANCH  23  28
ENDBRANCH  19  20
ENDBRANCH   3  19
TORSDOF 7
