REMARK  Name = ZINC000006087320
REMARK                            x       y       z     vdW  Elec       q    Type
REMARK                         _______ _______ _______ _____ _____    ______ ____
ROOT
ATOM      1  C   LIG    1        1.135  -2.918  -1.884  0.00  0.00    +0.222 C 
ENDROOT
BRANCH   1   2
ATOM      2  N   LIG    1       -0.195  -3.475  -2.230  0.00  0.00    -0.290 N 
ATOM      3  C   LIG    1       -1.344  -2.968  -1.649  0.00  0.00    +0.262 A 
ATOM      4  O   LIG    1       -1.211  -2.054  -0.830  0.00  0.00    -0.267 OA
ATOM      5  C   LIG    1       -2.614  -3.551  -2.025  0.00  0.00    +0.068 A 
ATOM      6  C   LIG    1       -3.829  -3.079  -1.506  0.00  0.00    +0.035 A 
ATOM      7  C   LIG    1       -5.026  -3.672  -1.892  0.00  0.00    +0.043 A 
ATOM      8 CL   LIG    1       -6.522  -3.089  -1.249  0.00  0.00    -0.083 Cl
ATOM      9  C   LIG    1       -5.028  -4.738  -2.795  0.00  0.00    +0.042 A 
ATOM     10  C   LIG    1       -3.827  -5.209  -3.311  0.00  0.00    +0.068 A 
ATOM     11 CL   LIG    1       -3.868  -6.536  -4.431  0.00  0.00    -0.081 Cl
ATOM     12  C   LIG    1       -2.601  -4.620  -2.930  0.00  0.00    +0.096 A 
ATOM     13  N   LIG    1       -1.371  -5.085  -3.434  0.00  0.00    -0.235 NA
ATOM     14  C   LIG    1       -0.259  -4.551  -3.098  0.00  0.00    +0.203 A 
ENDBRANCH   1   2
BRANCH   1  17
ATOM     15  N   LIG    1        0.968  -3.278   0.548  0.00  0.00    -0.284 N 
ATOM     16  H   LIG    1        0.208  -2.584   0.435  0.00  0.00    +0.155 HD
ATOM     17  C   LIG    1        1.610  -3.614  -0.619  0.00  0.00    +0.237 C 
ATOM     18  O   LIG    1        2.499  -4.438  -0.649  0.00  0.00    -0.274 OA
BRANCH  15  20
ATOM     19  C   LIG    1        0.803  -2.869   2.928  0.00  0.00    -0.026 A 
ATOM     20  C   LIG    1        1.210  -3.712   1.878  0.00  0.00    +0.037 A 
ATOM     21  C   LIG    1        1.809  -4.947   2.147  0.00  0.00    +0.023 A 
ATOM     22  C   LIG    1        2.028  -5.335   3.463  0.00  0.00    +0.002 A 
ATOM     23  C   LIG    1        1.645  -4.501   4.509  0.00  0.00    +0.000 A 
ATOM     24  C   LIG    1        1.036  -3.278   4.240  0.00  0.00    +0.005 A 
BRANCH  19  26
ATOM     25  C   LIG    1        1.254  -0.506   2.447  0.00  0.00    +0.009 C 
ATOM     26  C   LIG    1        0.130  -1.522   2.693  0.00  0.00    +0.033 C 
ENDBRANCH  19  26
ENDBRANCH  15  20
ENDBRANCH   1  17
TORSDOF 4
