REMARK  Name = ZINC000006084415
REMARK                            x       y       z     vdW  Elec       q    Type
REMARK                         _______ _______ _______ _____ _____    ______ ____
ROOT
ATOM      1  O   LIG    1        6.699  -1.502  -3.117  0.00  0.00    -0.451 OA
ENDROOT
BRANCH   1   2
ATOM      2  C   LIG    1        5.747  -1.214  -2.194  0.00  0.00    +0.356 C 
ATOM      3  O   LIG    1        6.122  -0.833  -1.094  0.00  0.00    -0.243 OA
BRANCH   2   7
ATOM      4  C   LIG    1        2.132  -1.497  -2.924  0.00  0.00    +0.041 A 
ATOM      5  C   LIG    1        3.155  -1.052  -2.055  0.00  0.00    -0.008 A 
ATOM      6  C   LIG    1        2.954  -0.332  -0.734  0.00  0.00    +0.047 C 
ATOM      7  C   LIG    1        4.368  -1.385  -2.609  0.00  0.00    +0.128 A 
ATOM      8  N   LIG    1        4.096  -2.020  -3.793  0.00  0.00    -0.352 N 
ATOM      9  H   LIG    1        4.825  -2.397  -4.428  0.00  0.00    +0.166 HD
ATOM     10  C   LIG    1        2.765  -2.099  -4.004  0.00  0.00    +0.024 A 
ATOM     11  C   LIG    1        2.263  -2.776  -5.265  0.00  0.00    +0.064 C 
BRANCH   4  13
ATOM     12  C   LIG    1       -0.338  -1.879  -3.668  0.00  0.00    +0.091 C 
ATOM     13  C   LIG    1        0.691  -1.346  -2.702  0.00  0.00    +0.162 C 
ATOM     14  O   LIG    1        0.242  -0.783  -1.725  0.00  0.00    -0.292 OA
ENDBRANCH   4  13
ENDBRANCH   2   7
ENDBRANCH   1   2
BRANCH   1  15
ATOM     15  C   LIG    1        8.119  -1.573  -2.733  0.00  0.00    +0.328 C 
BRANCH  15  16
ATOM     16  C   LIG    1        8.318  -2.859  -1.930  0.00  0.00    +0.256 C 
ATOM     17  N   LIG    1        9.213  -2.988  -0.915  0.00  0.00    -0.266 N 
ATOM     18  H   LIG    1        9.108  -3.866  -0.392  0.00  0.00    +0.156 HD
ATOM     19  O   LIG    1        7.690  -3.872  -2.165  0.00  0.00    -0.272 OA
BRANCH  17  20
ATOM     20  C   LIG    1       10.206  -2.092  -0.485  0.00  0.00    +0.144 A 
ATOM     21  C   LIG    1       10.700  -2.182   0.833  0.00  0.00    +0.082 A 
ATOM     22 CL   LIG    1       10.093  -3.368   1.944  0.00  0.00    -0.080 Cl
ATOM     23  C   LIG    1       11.693  -1.305   1.238  0.00  0.00    +0.045 A 
ATOM     24  C   LIG    1       12.163  -0.377   0.312  0.00  0.00    +0.063 A 
ATOM     25 CL   LIG    1       13.405   0.731   0.798  0.00  0.00    -0.082 Cl
ATOM     26  C   LIG    1       11.632  -0.354  -0.989  0.00  0.00    +0.059 A 
ATOM     27  C   LIG    1       12.121   0.635  -2.026  0.00  0.00    +0.067 C 
ATOM     28  N   LIG    1       10.671  -1.206  -1.367  0.00  0.00    -0.234 NA
ENDBRANCH  17  20
ENDBRANCH  15  16
ENDBRANCH   1  15
TORSDOF 6
