REMARK  Name = ZINC000070728784
REMARK                            x       y       z     vdW  Elec       q    Type
REMARK                         _______ _______ _______ _____ _____    ______ ____
ROOT
ATOM      1  C   LIG    1        4.184  -7.343   2.336  0.00  0.00    +0.251 C 
ATOM      2  N   LIG    1        4.929  -6.531   3.161  0.00  0.00    -0.261 N 
ATOM      3  H   LIG    1        5.453  -5.784   2.690  0.00  0.00    +0.157 HD
ATOM      4  O   LIG    1        3.372  -8.115   2.829  0.00  0.00    -0.270 OA
ENDROOT
BRANCH   1   6
ATOM      5  C   LIG    1        4.641  -6.042   0.212  0.00  0.00    +0.020 A 
ATOM      6  C   LIG    1        4.407  -7.263   0.897  0.00  0.00    +0.050 A 
ATOM      7  C   LIG    1        4.409  -8.455   0.156  0.00  0.00    +0.014 A 
ATOM      8  C   LIG    1        4.689  -8.459  -1.203  0.00  0.00    +0.001 A 
ATOM      9  C   LIG    1        4.971  -7.261  -1.855  0.00  0.00    +0.001 A 
ATOM     10  C   LIG    1        4.949  -6.064  -1.155  0.00  0.00    +0.015 A 
BRANCH   5  11
ATOM     11  S   LIG    1        4.546  -4.471   0.972  0.00  0.00    -0.122 S 
BRANCH  11  13
ATOM     12  C   LIG    1        2.824  -3.392   2.733  0.00  0.00    +0.019 C 
ATOM     13  C   LIG    1        2.827  -4.404   1.588  0.00  0.00    +0.045 C 
ATOM     14  C   LIG    1        1.970  -3.930   0.414  0.00  0.00    +0.019 C 
ENDBRANCH  11  13
ENDBRANCH   5  11
ENDBRANCH   1   6
BRANCH   2  15
ATOM     15  C   LIG    1        5.005  -6.553   4.559  0.00  0.00    +0.165 A 
ATOM     16  S   LIG    1        5.750  -5.198   5.320  0.00  0.00    -0.060 S 
ATOM     17  C   LIG    1        5.472  -5.979   6.819  0.00  0.00    +0.073 A 
ATOM     18  C   LIG    1        4.855  -7.179   6.642  0.00  0.00    +0.064 A 
ATOM     19  N   LIG    1        4.590  -7.506   5.342  0.00  0.00    -0.228 NA
BRANCH  18  20
ATOM     20  C   LIG    1        4.471  -8.112   7.776  0.00  0.00    +0.140 C 
BRANCH  20  21
ATOM     21  N   LIG    1        5.692  -8.355   8.604  0.00  0.00    -0.292 NA
ATOM     22  C   LIG    1        6.796  -9.047   7.862  0.00  0.00    +0.113 C 
ATOM     23  C   LIG    1        6.400 -10.520   7.590  0.00  0.00    +0.175 C 
ATOM     24  O   LIG    1        6.146 -11.136   8.853  0.00  0.00    -0.377 OA
ATOM     25  C   LIG    1        5.029 -10.562   9.529  0.00  0.00    +0.175 C 
ATOM     26  C   LIG    1        5.388  -9.092   9.862  0.00  0.00    +0.113 C 
ENDBRANCH  20  21
ENDBRANCH  18  20
ENDBRANCH   2  15
TORSDOF 6
