REMARK  Name = ZINC000000608130
REMARK                            x       y       z     vdW  Elec       q    Type
REMARK                         _______ _______ _______ _____ _____    ______ ____
ROOT
ATOM      1  C   LIG    1        8.195  -0.351   1.278  0.00  0.00    +0.264 C 
ATOM      2  C   LIG    1        9.234  -0.211   0.132  0.00  0.00    +0.145 C 
ATOM      3  C   LIG    1       10.142   1.031   0.180  0.00  0.00    +0.059 C 
ATOM      4  C   LIG    1        8.482  -0.167  -1.207  0.00  0.00    +0.059 C 
ATOM      5  O   LIG    1       10.074  -1.383   0.106  0.00  0.00    -0.482 OA
ATOM      6  C   LIG    1       10.464  -2.038   1.242  0.00  0.00    +0.132 A 
ATOM      7  C   LIG    1       11.422  -3.045   1.100  0.00  0.00    +0.047 A 
ATOM      8  C   LIG    1       11.862  -3.743   2.216  0.00  0.00    +0.015 A 
ATOM      9  C   LIG    1       11.348  -3.439   3.485  0.00  0.00    +0.018 A 
ATOM     10  C   LIG    1       10.382  -2.421   3.596  0.00  0.00    +0.149 A 
ATOM     11  O   LIG    1        9.876  -2.107   4.846  0.00  0.00    -0.422 OA
ATOM     12  C   LIG    1       10.276  -2.735   5.983  0.00  0.00    +0.337 A 
ATOM     13  O   LIG    1        9.776  -2.368   7.034  0.00  0.00    -0.245 OA
ATOM     14  C   LIG    1       11.257  -3.783   5.876  0.00  0.00    +0.092 A 
ATOM     15  C   LIG    1       11.779  -4.129   4.672  0.00  0.00    +0.018 A 
ATOM     16  C   LIG    1        9.918  -1.714   2.485  0.00  0.00    +0.081 A 
ATOM     17  C   LIG    1        8.876  -0.619   2.646  0.00  0.00    +0.258 C 
ENDROOT
BRANCH   1  18
ATOM     18  O   LIG    1        7.381   0.875   1.359  0.00  0.00    -0.453 OA
BRANCH  18  19
ATOM     19  C   LIG    1        6.106   0.812   1.781  0.00  0.00    +0.310 C 
ATOM     20  O   LIG    1        5.609  -0.274   2.075  0.00  0.00    -0.251 OA
BRANCH  19  21
ATOM     21  C   LIG    1        5.266   2.100   1.798  0.00  0.00    +0.094 C 
ATOM     22  C   LIG    1        5.362   2.852   0.454  0.00  0.00    +0.019 C 
BRANCH  21  24
ATOM     23  C   LIG    1        4.755   4.233   3.168  0.00  0.00    +0.004 C 
ATOM     24  C   LIG    1        5.653   2.999   2.990  0.00  0.00    +0.011 C 
ENDBRANCH  21  24
ENDBRANCH  19  21
ENDBRANCH  18  19
ENDBRANCH   1  18
BRANCH  17  25
ATOM     25  O   LIG    1        9.594   0.564   3.103  0.00  0.00    -0.453 OA
BRANCH  25  26
ATOM     26  C   LIG    1        9.062   1.401   3.992  0.00  0.00    +0.305 C 
ATOM     27  O   LIG    1        7.936   1.225   4.444  0.00  0.00    -0.251 OA
ATOM     28  C   LIG    1        9.888   2.600   4.409  0.00  0.00    +0.136 C 
ENDBRANCH  25  26
ENDBRANCH  17  25
TORSDOF 6
