REMARK  Name = ZINC000049483826
REMARK                            x       y       z     vdW  Elec       q    Type
REMARK                         _______ _______ _______ _____ _____    ______ ____
ROOT
ATOM      1  N   LIG    1        0.216  -2.547  -0.631  0.00  0.00    -0.175 NA
ATOM      2  C   LIG    1       -0.513  -1.289  -0.823  0.00  0.00    +0.123 C 
ATOM      3  C   LIG    1       -1.794  -2.088  -0.474  0.00  0.00    +0.109 C 
ATOM      4  C   LIG    1       -0.985  -3.377  -0.772  0.00  0.00    +0.123 C 
ENDROOT
BRANCH   3   5
ATOM      5  C   LIG    1       -2.912  -1.859  -1.462  0.00  0.00    +0.233 A 
ATOM      6  O   LIG    1       -4.103  -1.516  -1.020  0.00  0.00    -0.337 OA
ATOM      7  N   LIG    1       -4.898  -1.375  -2.058  0.00  0.00    -0.056 NA
ATOM      8  C   LIG    1       -4.166  -1.634  -3.088  0.00  0.00    +0.209 A 
ATOM      9  N   LIG    1       -2.894  -1.945  -2.729  0.00  0.00    -0.191 NA
BRANCH   8  10
ATOM     10  C   LIG    1       -4.646  -1.597  -4.463  0.00  0.00    +0.060 A 
ATOM     11  S   LIG    1       -3.601  -1.944  -5.809  0.00  0.00    -0.093 S 
ATOM     12  C   LIG    1       -4.886  -1.688  -6.932  0.00  0.00    +0.046 A 
ATOM     13  C   LIG    1       -6.051  -1.355  -6.301  0.00  0.00    +0.008 A 
ATOM     14  C   LIG    1       -5.916  -1.303  -4.906  0.00  0.00    +0.019 A 
ENDBRANCH   8  10
ENDBRANCH   3   5
BRANCH   1  15
ATOM     15  S   LIG    1        1.306  -2.753   0.581  0.00  0.00    +0.061 S 
ATOM     16  O   LIG    1        2.331  -1.778   0.450  0.00  0.00    -0.153 OA
ATOM     17  O   LIG    1        0.592  -2.756   1.812  0.00  0.00    -0.153 OA
BRANCH  15  20
ATOM     18  C   LIG    1        3.282  -3.643  -1.779  0.00  0.00    +0.046 C 
ATOM     19  C   LIG    1        2.866  -4.702  -0.770  0.00  0.00    -0.024 A 
ATOM     20  C   LIG    1        2.002  -4.407   0.304  0.00  0.00    +0.110 A 
ATOM     21  C   LIG    1        1.666  -5.428   1.199  0.00  0.00    +0.048 A 
ATOM     22  C   LIG    1        2.169  -6.716   1.033  0.00  0.00    +0.043 A 
ATOM     23 CL   LIG    1        1.731  -7.964   2.150  0.00  0.00    -0.083 Cl
ATOM     24  C   LIG    1        3.021  -7.002  -0.029  0.00  0.00    +0.020 A 
ATOM     25  C   LIG    1        3.366  -5.997  -0.923  0.00  0.00    +0.007 A 
ENDBRANCH  15  20
ENDBRANCH   1  15
TORSDOF 4
