REMARK  Name = ZINC000000623134
REMARK                            x       y       z     vdW  Elec       q    Type
REMARK                         _______ _______ _______ _____ _____    ______ ____
ROOT
ATOM      1  N   LIG    1        2.729  -1.144  -3.900  0.00  0.00    -0.299 N 
ATOM      2  H   LIG    1        2.849  -1.158  -4.919  0.00  0.00    +0.150 HD
ENDROOT
BRANCH   1   5
ATOM      3  C   LIG    1        4.577  -0.060  -1.764  0.00  0.00    +0.409 C 
ATOM      4  N   LIG    1        4.798  -0.731  -2.931  0.00  0.00    -0.212 N 
ATOM      5  C   LIG    1        3.860  -1.788  -3.295  0.00  0.00    +0.235 C 
ATOM      6  S   LIG    1        4.624  -2.659  -4.726  0.00  0.00    -0.086 S 
ATOM      7  C   LIG    1        5.896  -1.483  -4.796  0.00  0.00    +0.006 C 
ATOM      8  C   LIG    1        7.054  -1.337  -5.731  0.00  0.00    +0.044 C 
ATOM      9  C   LIG    1        7.528   0.105  -5.347  0.00  0.00    +0.011 C 
ATOM     10  C   LIG    1        7.004   0.416  -3.906  0.00  0.00    +0.052 C 
ATOM     11  C   LIG    1        5.877  -0.567  -3.844  0.00  0.00    +0.029 C 
ATOM     12  O   LIG    1        3.635  -0.332  -1.021  0.00  0.00    -0.226 OA
BRANCH   3  13
ATOM     13  O   LIG    1        5.459   0.911  -1.458  0.00  0.00    -0.450 OA
BRANCH  13  15
ATOM     14  C   LIG    1        6.482   2.657  -0.262  0.00  0.00    +0.048 C 
ATOM     15  C   LIG    1        5.312   1.676  -0.245  0.00  0.00    +0.230 C 
ENDBRANCH  13  15
ENDBRANCH   3  13
ENDBRANCH   1   5
BRANCH   1  16
ATOM     16  C   LIG    1        1.491  -1.589  -3.532  0.00  0.00    +0.136 C 
ATOM     17  S   LIG    1        0.316  -1.965  -4.665  0.00  0.00    -0.018 S 
BRANCH  16  18
ATOM     18  N   LIG    1        1.343  -1.621  -2.154  0.00  0.00    -0.297 N 
ATOM     19  H   LIG    1        2.006  -1.018  -1.632  0.00  0.00    +0.154 HD
BRANCH  18  20
ATOM     20  C   LIG    1        0.240  -2.125  -1.439  0.00  0.00    +0.033 A 
ATOM     21  C   LIG    1       -0.167  -1.425  -0.302  0.00  0.00    +0.027 A 
ATOM     22  C   LIG    1       -1.236  -1.897   0.452  0.00  0.00    +0.047 A 
ATOM     23  C   LIG    1       -1.886  -3.072   0.063  0.00  0.00    +0.120 A 
ATOM     24  C   LIG    1       -1.474  -3.776  -1.067  0.00  0.00    +0.047 A 
ATOM     25  C   LIG    1       -0.405  -3.306  -1.821  0.00  0.00    +0.027 A 
BRANCH  23  26
ATOM     26  O   LIG    1       -2.953  -3.589   0.772  0.00  0.00    -0.495 OA
ATOM     27  C   LIG    1       -3.540  -2.978   1.942  0.00  0.00    +0.277 C 
ENDBRANCH  23  26
ENDBRANCH  18  20
ENDBRANCH  16  18
ENDBRANCH   1  16
TORSDOF 7
