REMARK  Name = ZINC000000622877
REMARK                            x       y       z     vdW  Elec       q    Type
REMARK                         _______ _______ _______ _____ _____    ______ ____
ROOT
ATOM      1  O   LIG    1        1.497  -0.095  -0.119  0.00  0.00    -0.274 OA
ATOM      2  C   LIG    1        1.941   0.810   0.570  0.00  0.00    +0.235 C 
ATOM      3  N   LIG    1        3.282   0.911   0.781  0.00  0.00    -0.219 N 
ATOM      4  H   LIG    1        3.689   1.763   1.201  0.00  0.00    +0.176 HD
ENDROOT
BRANCH   3   5
ATOM      5  N   LIG    1        4.234  -0.047   0.188  0.00  0.00    -0.217 N 
ATOM      6  C   LIG    1        4.269  -1.404   0.550  0.00  0.00    +0.079 A 
ATOM      7  C   LIG    1        5.104  -2.090  -0.271  0.00  0.00    +0.078 A 
ATOM      8  S   LIG    1        5.879  -1.087  -1.454  0.00  0.00    -0.033 S 
ATOM      9  C   LIG    1        5.057   0.319  -0.853  0.00  0.00    +0.308 A 
ATOM     10  O   LIG    1        5.181   1.494  -1.262  0.00  0.00    -0.258 OA
BRANCH   6  11
ATOM     11  C   LIG    1        3.492  -1.925   1.666  0.00  0.00    +0.001 A 
ATOM     12  C   LIG    1        3.663  -1.420   2.962  0.00  0.00    +0.010 A 
ATOM     13  C   LIG    1        2.925  -1.927   4.026  0.00  0.00    +0.001 A 
ATOM     14  C   LIG    1        2.003  -2.946   3.812  0.00  0.00    +0.000 A 
ATOM     15  C   LIG    1        1.821  -3.456   2.530  0.00  0.00    +0.001 A 
ATOM     16  C   LIG    1        2.559  -2.949   1.467  0.00  0.00    +0.010 A 
ENDBRANCH   6  11
ENDBRANCH   3   5
BRANCH   2  17
ATOM     17  C   LIG    1        1.041   1.852   1.205  0.00  0.00    +0.132 C 
BRANCH  17  18
ATOM     18  C   LIG    1        1.705   3.213   1.044  0.00  0.00    -0.039 A 
ATOM     19  C   LIG    1        2.116   3.936   2.164  0.00  0.00    +0.005 A 
ATOM     20  C   LIG    1        2.739   5.171   2.012  0.00  0.00    +0.015 A 
ATOM     21  C   LIG    1        2.956   5.694   0.740  0.00  0.00    +0.018 A 
ATOM     22 BR   LIG    1        3.806   7.372   0.536  0.00  0.00    -0.050 Br
ATOM     23  C   LIG    1        2.545   4.977  -0.380  0.00  0.00    +0.015 A 
ATOM     24  C   LIG    1        1.920   3.743  -0.229  0.00  0.00    +0.005 A 
ENDBRANCH  17  18
ENDBRANCH   2  17
TORSDOF 4
